*SPEF "IEEE 1481-1998"
*DESIGN "fir"
*DATE "Wed Jun  7 15:36:20 2023"
*VENDOR "Cadence Design Systems, Inc."
*PROGRAM "Innovus"
*VERSION "18.10-p002_1"
*DESIGN_FLOW "COUPLING C" "PIN_CAP NONE" "NAME_SCOPE LOCAL"
*DIVIDER /
*DELIMITER :
*BUS_DELIMITER []
*T_UNIT 1 NS
*C_UNIT 1 PF
*R_UNIT 1 OHM
*L_UNIT 1 HENRY

// MMMC spef file for corner 'ff_n40C_1v95.hold_rc'

*NAME_MAP

*1 FE_PHN87_rst
*2 FE_PHN86_In_1
*3 FE_PHN85_rst
*4 delay_step0/FE_PHN84_In_1
*5 FE_PHN81_rst
*6 delay_step1/FE_PHN74_rst
*7 delay_step1/FE_PHN71_n_3
*8 delay_step1/FE_PHN70_n_1
*9 delay_step4/FE_PHN69_n_0
*10 delay_step2/FE_PHN68_n_3
*11 delay_step2/FE_PHN67_n_1
*12 delay_step4/FE_PHN66_n_2
*13 delay_step3/FE_PHN65_n_1
*14 delay_step2/FE_PHN64_n_2
*15 delay_step3/FE_PHN63_n_0
*16 delay_step3/FE_PHN62_n_2
*17 delay_step4/FE_PHN61_n_1
*18 delay_step0/FE_PHN60_n_3
*19 delay_step2/FE_PHN59_n_0
*20 delay_step4/FE_PHN58_n_3
*21 delay_step1/FE_PHN57_n_2
*22 delay_step3/FE_PHN56_n_3
*23 delay_step0/FE_PHN55_n_0
*24 delay_step0/FE_PHN54_n_2
*25 delay_step0/FE_PHN53_n_1
*26 FE_PHN52_rst
*27 delay_step1/FE_PHN51_n_3
*28 delay_step1/FE_PHN50_n_0
*29 delay_step1/FE_PHN49_n_1
*30 delay_step1/FE_PHN48_n_2
*31 delay_step4/FE_PHN47_n_3
*32 delay_step2/FE_PHN46_n_0
*33 delay_step3/FE_PHN45_n_3
*34 delay_step4/FE_PHN44_n_0
*35 delay_step2/FE_PHN43_n_3
*36 delay_step3/FE_PHN42_n_1
*37 delay_step4/FE_PHN41_n_2
*38 delay_step2/FE_PHN40_n_2
*39 delay_step2/FE_PHN39_n_1
*40 delay_step3/FE_PHN38_n_2
*41 delay_step3/FE_PHN37_n_0
*42 delay_step4/FE_PHN36_n_1
*43 delay_step0/FE_PHN35_n_3
*44 delay_step0/FE_PHN34_n_0
*45 delay_step0/FE_PHN33_n_1
*46 delay_step0/FE_PHN32_n_2
*47 delay_step1/FE_PHN31_n_3
*48 delay_step3/FE_PHN30_n_3
*49 delay_step2/FE_PHN29_n_1
*50 delay_step4/FE_PHN28_n_1
*51 delay_step3/FE_PHN27_n_0
*52 delay_step3/FE_PHN26_n_1
*53 delay_step0/FE_PHN25_n_1
*54 delay_step4/FE_PHN24_n_0
*55 delay_step1/FE_PHN23_n_2
*56 delay_step3/FE_PHN22_n_2
*57 delay_step2/FE_PHN21_n_0
*58 delay_step4/FE_PHN20_n_2
*59 delay_step4/FE_PHN19_n_3
*60 delay_step0/FE_PHN18_n_2
*61 delay_step1/FE_PHN17_n_0
*62 delay_step0/FE_PHN16_n_0
*63 delay_step2/FE_PHN15_n_3
*64 delay_step2/FE_PHN14_n_2
*65 delay_step0/FE_PHN13_n_3
*66 delay_step1/FE_PHN12_n_1
*67 CTS_3
*68 CTS_2
*69 CTS_1
*70 FE_OFN11_Out_0
*71 FE_OFN10_Out_1
*72 FE_OFN9_Out_2
*73 FE_OFN8_Out_3
*74 FE_OFN7_Out_4
*75 FE_OFN6_Out_5
*76 FE_OFN5_Out_6
*77 FE_OFN4_Out_7
*78 FE_OFN0_Out_10
*79 clk
*80 rst
*81 In[3]
*82 In[2]
*83 In[1]
*84 In[0]
*85 Out[14]
*86 Out[12]
*87 Out[10]
*88 Out[8]
*89 Out[7]
*90 Out[6]
*91 Out[5]
*92 Out[4]
*93 Out[3]
*94 Out[2]
*95 Out[1]
*96 Out[0]
*97 delay_chain0[3]
*98 delay_chain0[2]
*99 delay_chain0[1]
*100 delay_chain0[0]
*101 delay_chain1[3]
*102 delay_chain1[2]
*103 delay_chain1[1]
*104 delay_chain1[0]
*105 delay_chain2[3]
*106 delay_chain2[2]
*107 delay_chain2[1]
*108 delay_chain2[0]
*109 delay_chain3[3]
*110 delay_chain3[2]
*111 delay_chain3[1]
*112 delay_chain3[0]
*113 delay_chain4[3]
*114 delay_chain4[2]
*115 delay_chain4[1]
*116 delay_chain4[0]
*117 add0/n_10
*118 add0/n_11
*119 add0/n_12
*120 add0/n_13
*121 add0/n_14
*122 add0/n_15
*123 add0/n_16
*124 add0/n_17
*125 add0/n_18
*126 add0/n_19
*127 add0/n_20
*128 add0/n_21
*129 add0/n_22
*130 add0/n_23
*131 add0/n_24
*132 add0/n_25
*133 add0/n_26
*134 add0/n_28
*135 add0/n_29
*136 add0/n_30
*137 add0/n_31
*138 add0/n_32
*139 add0/n_33
*140 add0/n_34
*141 add0/n_36
*142 add0/n_38
*143 add0/n_40
*144 add0/n_42
*145 add0/n_44
*146 delay_step0/n_0
*147 delay_step0/n_1
*148 delay_step0/n_2
*149 delay_step0/n_3
*150 delay_step1/n_0
*151 delay_step1/n_1
*152 delay_step1/n_2
*153 delay_step1/n_3
*154 delay_step2/n_0
*155 delay_step2/n_1
*156 delay_step2/n_2
*157 delay_step2/n_3
*158 delay_step3/n_0
*159 delay_step3/n_1
*160 delay_step3/n_2
*161 delay_step3/n_3
*162 delay_step4/n_0
*163 delay_step4/n_1
*164 delay_step4/n_2
*165 delay_step4/n_3
*166 Out[15]
*167 Out[13]
*168 Out[11]
*169 Out[9]
*170 FE_PHC87_rst
*171 FE_PHC86_In_1
*172 FE_PHC85_rst
*173 FE_PHC81_rst
*174 FE_PHC52_rst
*175 CTS_ccl_a_inv_00006
*176 CTS_ccl_a_inv_00004
*177 CTS_ccl_a_inv_00009
*178 FE_OFC11_Out_0
*179 FE_OFC10_Out_1
*180 FE_OFC9_Out_2
*181 FE_OFC8_Out_3
*182 FE_OFC7_Out_4
*183 FE_OFC6_Out_5
*184 FE_OFC5_Out_6
*185 FE_OFC4_Out_7
*186 FE_OFC3_Out_10
*187 FE_OFC2_Out_10
*188 FE_OFC1_Out_10
*189 FE_OFC0_Out_10
*190 add0/g816
*191 add0/g817__2398
*192 add0/g818__5107
*193 add0/g819__6260
*194 add0/g820__4319
*195 add0/g821__8428
*196 add0/g822__5526
*197 add0/g823
*198 add0/g824
*199 add0/g825__6783
*200 add0/g826__3680
*201 add0/g827__1617
*202 add0/g828__2802
*203 add0/g829__1705
*204 add0/g830__5122
*205 add0/g831__8246
*206 add0/g832__7098
*207 add0/g834__6131
*208 add0/g835__1881
*209 add0/g836__5115
*210 add0/g837__7482
*211 add0/g838
*212 add0/g839
*213 add0/g841
*214 add0/g2__4733
*215 delay_step0/FE_PHC84_In_1
*216 delay_step0/FE_PHC60_n_3
*217 delay_step0/FE_PHC55_n_0
*218 delay_step0/FE_PHC54_n_2
*219 delay_step0/FE_PHC53_n_1
*220 delay_step0/FE_PHC35_n_3
*221 delay_step0/FE_PHC34_n_0
*222 delay_step0/FE_PHC33_n_1
*223 delay_step0/FE_PHC32_n_2
*224 delay_step0/FE_PHC25_n_1
*225 delay_step0/FE_PHC18_n_2
*226 delay_step0/FE_PHC16_n_0
*227 delay_step0/FE_PHC13_n_3
*228 delay_step0/q_reg\[3\]
*229 delay_step0/q_reg\[2\]
*230 delay_step0/q_reg\[0\]
*231 delay_step0/q_reg\[1\]
*232 delay_step0/g7__6161
*233 delay_step0/g8__9315
*234 delay_step0/g9__9945
*235 delay_step0/g10__2883
*236 delay_step1/FE_PHC74_rst
*237 delay_step1/FE_PHC71_n_3
*238 delay_step1/FE_PHC70_n_1
*239 delay_step1/FE_PHC57_n_2
*240 delay_step1/FE_PHC51_n_3
*241 delay_step1/FE_PHC50_n_0
*242 delay_step1/FE_PHC49_n_1
*243 delay_step1/FE_PHC48_n_2
*244 delay_step1/FE_PHC31_n_3
*245 delay_step1/FE_PHC23_n_2
*246 delay_step1/FE_PHC17_n_0
*247 delay_step1/FE_PHC12_n_1
*248 delay_step1/q_reg\[3\]
*249 delay_step1/q_reg\[2\]
*250 delay_step1/q_reg\[0\]
*251 delay_step1/q_reg\[1\]
*252 delay_step1/g7__2346
*253 delay_step1/g8__1666
*254 delay_step1/g9__7410
*255 delay_step1/g10__6417
*256 delay_step2/FE_PHC68_n_3
*257 delay_step2/FE_PHC67_n_1
*258 delay_step2/FE_PHC64_n_2
*259 delay_step2/FE_PHC59_n_0
*260 delay_step2/FE_PHC46_n_0
*261 delay_step2/FE_PHC43_n_3
*262 delay_step2/FE_PHC40_n_2
*263 delay_step2/FE_PHC39_n_1
*264 delay_step2/FE_PHC29_n_1
*265 delay_step2/FE_PHC21_n_0
*266 delay_step2/FE_PHC15_n_3
*267 delay_step2/FE_PHC14_n_2
*268 delay_step2/q_reg\[3\]
*269 delay_step2/q_reg\[2\]
*270 delay_step2/q_reg\[0\]
*271 delay_step2/q_reg\[1\]
*272 delay_step2/g7__5477
*273 delay_step2/g8__2398
*274 delay_step2/g9__5107
*275 delay_step2/g10__6260
*276 delay_step3/FE_PHC65_n_1
*277 delay_step3/FE_PHC63_n_0
*278 delay_step3/FE_PHC62_n_2
*279 delay_step3/FE_PHC56_n_3
*280 delay_step3/FE_PHC45_n_3
*281 delay_step3/FE_PHC42_n_1
*282 delay_step3/FE_PHC38_n_2
*283 delay_step3/FE_PHC37_n_0
*284 delay_step3/FE_PHC30_n_3
*285 delay_step3/FE_PHC27_n_0
*286 delay_step3/FE_PHC26_n_1
*287 delay_step3/FE_PHC22_n_2
*288 delay_step3/q_reg\[3\]
*289 delay_step3/q_reg\[2\]
*290 delay_step3/q_reg\[0\]
*291 delay_step3/q_reg\[1\]
*292 delay_step3/g7__4319
*293 delay_step3/g8__8428
*294 delay_step3/g9__5526
*295 delay_step3/g10__6783
*296 delay_step4/FE_PHC69_n_0
*297 delay_step4/FE_PHC66_n_2
*298 delay_step4/FE_PHC61_n_1
*299 delay_step4/FE_PHC58_n_3
*300 delay_step4/FE_PHC47_n_3
*301 delay_step4/FE_PHC44_n_0
*302 delay_step4/FE_PHC41_n_2
*303 delay_step4/FE_PHC36_n_1
*304 delay_step4/FE_PHC28_n_1
*305 delay_step4/FE_PHC24_n_0
*306 delay_step4/FE_PHC20_n_2
*307 delay_step4/FE_PHC19_n_3
*308 delay_step4/q_reg\[3\]
*309 delay_step4/q_reg\[2\]
*310 delay_step4/q_reg\[0\]
*311 delay_step4/q_reg\[1\]
*312 delay_step4/g7__3680
*313 delay_step4/g8__1617
*314 delay_step4/g9__2802
*315 delay_step4/g10__1705


*PORTS

*79 I *C 3989.81 0
*80 I *C 3658.61 0
*81 I *C 3326.95 0
*82 I *C 2995.29 0
*83 I *C 2663.63 0
*84 I *C 2331.97 0
*166 O *C 2000.31 0
*85 O *C 1668.65 0
*167 O *C 1336.99 0
*86 O *C 1005.33 0
*168 O *C 673.67 0
*87 O *C 342.01 0
*169 O *C 10.35 0
*88 O *C 3989.58 0
*89 O *C 3492.78 0
*90 O *C 2995.29 0
*91 O *C 2497.8 0
*92 O *C 2000.31 0
*93 O *C 1502.82 0
*94 O *C 1005.33 0
*95 O *C 507.84 0
*96 O *C 10.35 0


*D_NET *1 0.0223289

*CONN
*I *170:X O *C 2625.45 24.99 *L 0 *D sky130_fd_sc_hd__buf_4
*I *172:A I *C 2622.23 22.27 *L 0.00463 *D sky130_fd_sc_hd__buf_6
*I *273:A I *C 2554.15 27.71 *L 0.00237 *D sky130_fd_sc_hd__nor2b_1
*I *274:A I *C 2579.45 19.21 *L 0.00237 *D sky130_fd_sc_hd__nor2b_1
*I *253:A I *C 2523.33 24.65 *L 0.00237 *D sky130_fd_sc_hd__nor2b_1
*I *314:A I *C 2557.83 22.27 *L 0.00237 *D sky130_fd_sc_hd__nor2b_1
*I *315:A I *C 2565.19 24.65 *L 0.00237 *D sky130_fd_sc_hd__nor2b_1
*I *294:A I *C 2579.91 30.09 *L 0.00237 *D sky130_fd_sc_hd__nor2b_1

*CAP
1 *170:X 1.785e-05
2 *172:A 1.785e-05
3 *273:A 1.785e-05
4 *274:A 1.785e-05
5 *253:A 1.785e-05
6 *314:A 1.785e-05
7 *315:A 1.785e-05
8 *294:A 1.785e-05
9 *1:8 0.00059885
10 *1:9 0.0003833
11 *1:10 0.00048707
12 *1:11 0.00048707
13 *1:12 0.00010583
14 *1:13 0.00036811
15 *1:14 0.00013277
16 *1:15 0.00013971
17 *1:16 0.00011418
18 *1:17 8.914e-05
19 *1:18 0.00014259
20 *1:19 0.00014259
21 *1:20 0.00034754
22 *1:21 0.00034754
23 *1:22 0.00025799
24 *1:23 0.00023936
25 *1:24 0.0001136
26 *1:25 0.0001136
27 *1:26 0.00011787
28 *1:27 0.00011336
29 *1:28 0.00013971
30 *1:29 0.00010583
31 *1:30 0.00059382
32 *1:31 0.00061838
33 *1:32 0.00029495
34 *1:33 0.00031358
35 *1:34 0.00019765
36 *1:35 0.00031256
37 *1:36 0.00051173
38 *1:37 0.00051173
39 *1:38 0.00016108
40 *1:39 0.00047265
41 *1:40 0.00047265
42 *1:41 9.145e-05
43 *1:42 8.451e-05
44 *1:43 0.00030558
45 *1:44 0.0001621
46 *1:45 0.00021831
47 *1:46 0.00017275
48 *1:47 0.00017275
49 *1:48 6.74e-05
50 *1:49 6.74e-05
51 *1:50 8.881e-05
52 *1:51 0.00010744
53 *1:55 0.00025093
54 *1:56 0.00319239
55 *1:57 0.00025787
56 *1:58 0.00320235
57 *1:59 0.00015603
58 *1:60 6.647e-05
59 *1:61 0.00014607
60 *1:62 6.788e-05
61 *1:63 7.816e-05
62 *1:64 7.24e-05
63 *1:65 5.904e-05
64 *1:66 0.00026296
65 *1:67 0.00024432
66 *1:68 0.00014131
67 *1:69 0.00014131
68 *1:70 0.00024432
69 *1:71 0.00076165
70 *1:72 7.998e-05
71 *1:73 0.00055461
72 *1:74 6.788e-05
73 *1:75 0.00010454
74 *1:36 *122:21 0.00018066
75 *1:37 *122:23 0.00018066
76 *1:36 *122:20 0.00012497
77 *1:37 *122:22 0.00012497
78 *1:30 *122:5 1.29e-05
79 *1:31 *122:6 1.29e-05
80 *1:20 *112:8 0.00015485
81 *1:21 *112:11 0.00015485

*RES
1 *1:74 *253:A 4
2 *1:54 *1:74 0.393389
3 *1:18 *1:74 4
4 *1:19 *1:18 1.82143
5 *1:75 *1:19 4
6 *1:75 *1:72 0.821429
7 *1:73 *1:72 0.303571
8 *1:73 *1:71 7.80357
9 *1:71 *1:70 3.28571
10 *1:65 *273:A 4
11 *1:70 *1:69 0.303571
12 *1:17 *1:65 0.303571
13 *1:69 *1:68 1.64286
14 *1:17 *1:16 0.821429
15 *1:68 *1:40 0.303571
16 *1:64 *1:16 4
17 *1:40 *1:39 3.28571
18 *1:64 *1:48 0.410714
19 *1:21 *1:39 0.303571
20 *1:49 *1:48 0.607143
21 *1:21 *1:20 5.75
22 *1:49 *1:46 0.410714
23 *1:67 *1:20 0.303571
24 *1:47 *1:46 2.42857
25 *1:67 *1:66 3.28571
26 *1:50 *1:47 0.410714
27 *1:66 *1:9 0.607143
28 *1:51 *1:50 0.910714
29 *1:63 *314:A 4
30 *1:9 *1:8 2.875
31 *1:8 *1:51 4
32 *1:63 *1:13 0.607143
33 *1:8 *1:13 2.05357
34 *1:13 *1:12 0.821429
35 *1:11 *1:12 0.151786
36 *1:11 *1:10 4.10714
37 *1:10 *1:29 0.151786
38 *1:29 *1:28 0.821429
39 *1:14 *315:A 4
40 *1:42 *172:A 4
41 *1:27 *1:28 4
42 *1:15 *1:14 0.821429
43 *1:42 *1:41 0.410714
44 *1:55 *170:X 4
45 *1:27 *1:26 1.51786
46 *1:26 *1:15 4
47 *1:44 *1:41 4
48 *1:57 *1:55 2.875
49 *1:26 *1:25 0.410714
50 *1:44 *1:43 1.82143
51 *1:43 *1:57 4
52 *1:25 *1:24 1.21429
53 *1:43 *1:45 3.04464
54 *1:24 *1:23 0.410714
55 *1:62 *274:A 4
56 *1:53 *1:62 0.393389
57 *1:56 *1:45 4
58 *1:23 *1:22 3.03571
59 *1:33 *1:62 4
60 *1:58 *1:56 6.486
61 *1:31 *1:22 4
62 *1:33 *1:32 4.25
63 *1:59 *1:58 0.0955667
64 *1:31 *1:30 5.33929
65 *1:32 *1:38 0.410714
66 *1:61 *1:59 0.2162
67 *1:30 *1:37 0.303571
68 *1:38 *1:35 2.80357
69 *1:35 *1:61 4
70 *1:37 *1:36 7.80357
71 *1:35 *1:34 2.66071
72 *1:36 *1:60 0.303571
73 *1:60 *1:34 4
74 *1:60 *294:A 4
75 *1:52 *1:60 0.0625
*END

*D_NET *2 0.0015859

*CONN
*I *171:X O *C 2653.97 13.09 *L 0 *D sky130_fd_sc_hd__clkbuf_1
*I *215:A I *C 2644.31 13.77 *L 0.00206 *D sky130_fd_sc_hd__clkbuf_1

*CAP
1 *171:X 1.785e-05
2 *215:A 1.785e-05
3 *2:2 0.00073581
4 *2:3 0.00073653
5 *2:4 7.786e-05

*RES
1 *2:4 *215:A 4
2 *2:4 *2:3 0.607143
3 *2:3 *2:2 8.625
4 *2:2 *171:X 4
*END

*D_NET *3 0.0206535

*CONN
*I *172:X O *C 2623.61 22.61 *L 0 *D sky130_fd_sc_hd__buf_6
*I *254:A I *C 2580.83 11.39 *L 0.00237 *D sky130_fd_sc_hd__nor2b_1
*I *255:A I *C 2586.35 11.39 *L 0.00237 *D sky130_fd_sc_hd__nor2b_1
*I *313:A I *C 2538.97 22.27 *L 0.00237 *D sky130_fd_sc_hd__nor2b_1
*I *312:A I *C 2597.39 30.09 *L 0.00237 *D sky130_fd_sc_hd__nor2b_1
*I *293:A I *C 2556.45 38.59 *L 0.00237 *D sky130_fd_sc_hd__nor2b_1
*I *295:A I *C 2587.27 22.27 *L 0.00237 *D sky130_fd_sc_hd__nor2b_1
*I *292:A I *C 2613.49 30.09 *L 0.00237 *D sky130_fd_sc_hd__nor2b_1
*I *275:A I *C 2587.73 16.83 *L 0.00237 *D sky130_fd_sc_hd__nor2b_1
*I *272:A I *C 2615.79 22.27 *L 0.00237 *D sky130_fd_sc_hd__nor2b_1

*CAP
1 *172:X 1.785e-05
2 *254:A 1.785e-05
3 *255:A 1.785e-05
4 *313:A 1.785e-05
5 *312:A 1.785e-05
6 *293:A 1.785e-05
7 *295:A 1.785e-05
8 *292:A 1.785e-05
9 *275:A 1.785e-05
10 *272:A 1.785e-05
11 *3:10 0.00102582
12 *3:11 0.0010142
13 *3:12 0.00088601
14 *3:13 0.00088601
15 *3:14 0.00024184
16 *3:15 0.00021728
17 *3:16 0.000226
18 *3:17 0.000226
19 *3:18 0.00017433
20 *3:19 0.00018127
21 *3:20 0.0004888
22 *3:21 0.00051524
23 *3:22 0.00069826
24 *3:23 0.00088266
25 *3:24 0.0002854
26 *3:25 0.0002854
27 *3:26 0.00029184
28 *3:27 0.00016143
29 *3:28 0.00018626
30 *3:29 0.00034052
31 *3:30 0.00031122
32 *3:31 7.57e-05
33 *3:32 8.881e-05
34 *3:33 0.00020401
35 *3:34 0.00021095
36 *3:35 0.00016322
37 *3:36 0.00016322
38 *3:37 0.00046252
39 *3:38 0.00046252
40 *3:39 8.331e-05
41 *3:40 0.00020536
42 *3:41 0.00018698
43 *3:42 0.00025901
44 *3:43 0.00027739
45 *3:44 0.00011589
46 *3:45 0.00013452
47 *3:46 0.00018776
48 *3:47 0.00016913
49 *3:48 0.00018055
50 *3:49 0.00018055
51 *3:50 0.00022051
52 *3:51 0.00022072
53 *3:52 0.0002878
54 *3:53 0.00028079
55 *3:54 0.00027003
56 *3:55 0.00030438
57 *3:56 0.00015604
58 *3:57 7.14e-05
59 *3:58 0.00018315
60 *3:59 7.459e-05
61 *3:60 0.00035688
62 *3:61 0.00035688
63 *3:62 6.785e-05
64 *3:63 8.809e-05
65 *3:64 4.31e-05
66 *3:65 0.00151008
67 *3:66 0.00148552
68 *3:67 0.00024253
69 *3:68 0.0002602
70 *3:69 4.988e-05
71 *3:70 6.75e-05
72 *3:22 *151:2 1.061e-05
73 *3:23 *151:3 1.061e-05
74 *3:24 *151:2 7.277e-05
75 *3:25 *151:3 7.277e-05
76 *3:23 *151:6 3.034e-05
77 *3:26 *151:7 3.034e-05
78 *3:27 *151:4 9.373e-05
79 *3:28 *151:5 9.373e-05
80 *3:29 *151:8 6.249e-05
81 *3:30 *151:9 6.249e-05

*RES
1 *3:70 *313:A 4
2 *3:70 *3:69 0.410714
3 *3:69 *3:15 0.303571
4 *3:15 *3:14 1.64286
5 *3:13 *3:14 4
6 *3:13 *3:12 14.2679
7 *3:30 *254:A 4
8 *3:39 *255:A 4
9 *3:11 *3:12 4
10 *3:30 *3:29 4.51786
11 *3:29 *3:39 0.410714
12 *3:18 *275:A 4
13 *3:11 *3:10 13.5536
14 *3:10 *293:A 4
15 *3:26 *3:29 4
16 *3:19 *3:18 1.64286
17 *3:33 *295:A 4
18 *3:10 *3:68 0.607143
19 *3:26 *3:23 4.85714
20 *3:23 *3:19 4
21 *3:34 *3:33 1.23214
22 *3:68 *3:67 2.05357
23 *3:23 *3:22 4.85714
24 *3:22 *3:34 4
25 *3:17 *3:67 0.303571
26 *3:22 *3:32 0.910714
27 *3:17 *3:16 2.875
28 *3:25 *3:32 0.410714
29 *3:66 *3:16 0.303571
30 *3:25 *3:24 4.85714
31 *3:66 *3:65 21.3571
32 *3:24 *3:31 0.410714
33 *3:20 *3:65 4
34 *3:31 *3:21 0.910714
35 *3:21 *3:20 7.89286
36 *3:28 *3:21 4
37 *3:28 *3:27 2.05357
38 *3:27 *3:36 0.303571
39 *3:36 *3:35 2.05357
40 *3:38 *3:35 0.303571
41 *3:38 *3:37 5.75
42 *3:37 *3:64 0.303571
43 *3:64 *3:63 0.410714
44 *3:63 *312:A 4
45 *3:63 *3:62 0.821429
46 *3:62 *3:41 0.303571
47 *3:41 *3:40 2.46429
48 *3:43 *3:40 0.607143
49 *3:43 *3:42 2.46429
50 *3:42 *3:61 0.303571
51 *3:61 *3:60 4.92857
52 *3:60 *3:51 0.303571
53 *3:51 *3:50 2.875
54 *3:59 *3:50 0.303571
55 *3:59 *3:58 0.821429
56 *3:58 *292:A 4
57 *3:58 *3:56 1.64286
58 *3:46 *3:56 4
59 *3:47 *3:46 2.42857
60 *3:48 *3:47 0.410714
61 *3:49 *3:48 3.03571
62 *3:49 *3:44 0.410714
63 *3:45 *3:44 1.51786
64 *3:57 *3:45 4
65 *3:57 *3:55 0.410714
66 *3:55 *272:A 4
67 *3:55 *3:53 2.875
68 *3:54 *3:53 0.303571
69 *3:54 *3:52 4.10714
70 *3:52 *172:X 4
*END

*D_NET *4 3.566e-05

*CONN
*I *215:X O *C 2643.39 13.09 *L 0 *D sky130_fd_sc_hd__clkbuf_1
*I *234:B_N I *C 2642.93 13.43 *L 0.00142 *D sky130_fd_sc_hd__nor2b_1

*CAP
1 *215:X 1.783e-05
2 *234:B_N 1.783e-05

*RES
1 *234:B_N *215:X 34.6353
*END

*D_NET *5 0.028698

*CONN
*I *173:X O *C 2849.47 13.09 *L 0 *D sky130_fd_sc_hd__buf_2
*I *236:A I *C 2628.21 16.83 *L 0.00157 *D sky130_fd_sc_hd__dlygate4sd3_1
*I *234:A I *C 2642.01 13.77 *L 0.00237 *D sky130_fd_sc_hd__nor2b_1

*CAP
1 *173:X 1.785e-05
2 *236:A 1.785e-05
3 *234:A 1.785e-05
4 *5:3 0.00021315
5 *5:4 0.00021315
6 *5:5 0.00052288
7 *5:6 0.00052288
8 *5:7 0.00015464
9 *5:8 0.00015464
10 *5:9 0.00087054
11 *5:10 0.00087066
12 *5:11 0.00880783
13 *5:12 0.00601827
14 *5:13 0.00028159
15 *5:14 0.00028208
16 *5:15 0.0028448
17 *5:16 7.983e-05
18 *5:17 0.00190851
19 *5:18 7.983e-05
20 *5:19 0.00190839
21 *5:20 0.00011743
22 *5:21 0.00016925
23 *5:22 7.492e-05
24 *5:23 6.797e-05
25 *5:24 0.00019824
26 *5:25 0.00043253
27 *5:26 0.00019824
28 *5:27 9.268e-05
29 *5:28 0.00022488
30 *5:29 0.00040782
31 *5:30 0.00022488
32 *5:31 0.000115
33 *5:32 0.00013277
34 *5:9 *83:4 0.00019356
35 *5:10 *83:6 0.00019356
36 *5:9 *83:3 1.677e-05
37 *5:10 *83:5 1.677e-05
38 *5:9 *83:7 1.677e-05
39 *5:10 *83:9 1.677e-05

*RES
1 *5:32 *236:A 4
2 *5:32 *5:31 0.821429
3 *5:31 *5:30 0.303571
4 *5:30 *5:28 2.46429
5 *5:29 *5:28 0.303571
6 *5:29 *5:25 4.92857
7 *5:24 *5:25 4
8 *5:26 *5:24 2.73214
9 *5:27 *5:26 4
10 *5:27 *5:23 0.821429
11 *5:23 *5:8 0.303571
12 *5:8 *5:7 2.05357
13 *5:22 *5:7 0.303571
14 *5:22 *5:21 0.821429
15 *5:21 *234:A 4
16 *5:21 *5:20 1.64286
17 *5:6 *5:20 0.303571
18 *5:6 *5:5 6.57143
19 *5:5 *5:4 0.303571
20 *5:4 *5:3 2.46429
21 *5:3 *5:10 0.303571
22 *5:10 *5:9 14.7857
23 *5:19 *5:9 0.303571
24 *5:19 *5:17 27.5179
25 *5:18 *5:17 0.303571
26 *5:18 *5:16 0.821429
27 *5:16 *5:12 0.303571
28 *5:11 *5:15 40.8839
29 *5:12 *5:11 87.2589
30 *5:15 *5:14 0.607143
31 *5:14 *5:13 3.28571
32 *5:13 *173:X 4
*END

*D_NET *6 0.00132826

*CONN
*I *236:X O *C 2631.43 17.51 *L 0 *D sky130_fd_sc_hd__dlygate4sd3_1
*I *252:A I *C 2626.83 13.77 *L 0.00237 *D sky130_fd_sc_hd__nor2b_1

*CAP
1 *236:X 1.785e-05
2 *252:A 1.785e-05
3 *6:2 0.00024142
4 *6:3 0.0001293
5 *6:4 0.00024836
6 *6:5 0.0001293
7 *6:6 0.00027556
8 *6:7 0.00026862

*RES
1 *6:7 *252:A 4
2 *6:7 *6:6 2.46429
3 *6:5 *6:6 4
4 *6:5 *6:3 1.82143
5 *6:4 *6:3 4
6 *6:4 *6:2 1.64286
7 *6:2 *236:X 4
*END

*D_NET *7 0.0013178

*CONN
*I *237:X O *C 2625.91 18.53 *L 0 *D sky130_fd_sc_hd__clkdlybuf4s18_2
*I *244:A I *C 2620.85 16.83 *L 0.00157 *D sky130_fd_sc_hd__dlygate4sd3_1

*CAP
1 *237:X 1.785e-05
2 *244:A 1.785e-05
3 *7:2 0.00024278
4 *7:3 0.00019286
5 *7:4 0.00024972
6 *7:5 0.00019286
7 *7:6 0.00020541
8 *7:7 0.00019847

*RES
1 *7:7 *244:A 4
2 *7:7 *7:6 2.05357
3 *7:5 *7:6 4
4 *7:5 *7:3 1.82143
5 *7:4 *7:3 4
6 *7:4 *7:2 2.05357
7 *7:2 *237:X 4
*END

*D_NET *8 0.00219776

*CONN
*I *238:X O *C 2590.03 29.41 *L 0 *D sky130_fd_sc_hd__clkdlybuf4s18_2
*I *242:A I *C 2587.27 19.21 *L 0.00205 *D sky130_fd_sc_hd__clkdlybuf4s50_1

*CAP
1 *238:X 1.785e-05
2 *242:A 1.785e-05
3 *8:2 8.451e-05
4 *8:3 9.145e-05
5 *8:4 0.00037176
6 *8:5 0.00061782
7 *8:6 0.0003787
8 *8:7 0.00061782

*RES
1 *8:2 *242:A 4
2 *8:3 *8:2 0.410714
3 *8:7 *8:3 4
4 *8:7 *8:5 9.10714
5 *8:6 *8:5 4
6 *8:6 *8:4 2.875
7 *8:4 *238:X 4
*END

*D_NET *9 0.00194084

*CONN
*I *296:X O *C 2569.33 23.97 *L 0 *D sky130_fd_sc_hd__clkdlybuf4s18_2
*I *305:A I *C 2556.45 24.65 *L 0.00157 *D sky130_fd_sc_hd__dlygate4sd3_1

*CAP
1 *296:X 1.785e-05
2 *305:A 1.785e-05
3 *9:2 0.00059189
4 *9:3 0.00060951
5 *9:4 0.00036068
6 *9:5 0.00034306

*RES
1 *9:3 *305:A 4
2 *9:3 *9:2 7.39286
3 *9:2 *9:5 0.303571
4 *9:5 *9:4 3.69643
5 *9:4 *296:X 4
*END

*D_NET *10 0.00094734

*CONN
*I *256:X O *C 2623.61 23.97 *L 0 *D sky130_fd_sc_hd__clkdlybuf4s18_2
*I *261:A I *C 2620.85 27.71 *L 0.00217 *D sky130_fd_sc_hd__clkdlybuf4s50_2

*CAP
1 *256:X 1.785e-05
2 *261:A 1.785e-05
3 *10:2 0.00025367
4 *10:3 0.00024673
5 *10:5 0.00017168
6 *10:6 0.00017168
7 *10:7 6.788e-05

*RES
1 *10:3 *261:A 4
2 *10:3 *10:2 2.46429
3 *10:5 *10:2 4
4 *10:6 *10:5 1.82143
5 *10:7 *256:X 4
6 *10:7 *10:6 4
7 *10:4 *10:7 0.393389
*END

*D_NET *11 0.0012394

*CONN
*I *257:X O *C 2575.31 18.53 *L 0 *D sky130_fd_sc_hd__clkdlybuf4s18_2
*I *264:A I *C 2578.07 22.27 *L 0.00157 *D sky130_fd_sc_hd__dlygate4sd3_1

*CAP
1 *257:X 1.785e-05
2 *264:A 1.785e-05
3 *11:2 0.0003787
4 *11:3 0.00037176
5 *11:4 6.446e-05
6 *11:5 0.00015869
7 *11:6 7.14e-05
8 *11:7 0.00015869

*RES
1 *11:3 *257:X 4
2 *11:3 *11:2 2.05357
3 *11:7 *11:2 4
4 *11:7 *11:5 1.51786
5 *11:6 *11:5 4
6 *11:4 *264:A 4
7 *11:6 *11:4 0.410714
*END

*D_NET *12 0.0010594

*CONN
*I *297:X O *C 2543.11 23.97 *L 0 *D sky130_fd_sc_hd__clkdlybuf4s18_2
*I *302:A I *C 2540.35 22.27 *L 0.00217 *D sky130_fd_sc_hd__clkdlybuf4s50_2

*CAP
1 *297:X 1.785e-05
2 *302:A 1.785e-05
3 *12:3 0.00031322
4 *12:4 0.00016122
5 *12:5 0.00032016
6 *12:6 0.00016122
7 *12:7 6.788e-05

*RES
1 *12:3 *297:X 4
2 *12:5 *12:3 2.46429
3 *12:4 *12:5 4
4 *12:6 *12:4 1.51786
5 *12:7 *302:A 4
6 *12:7 *12:6 4
7 *12:2 *12:7 0.0625
*END

*D_NET *13 0.00103724

*CONN
*I *276:X O *C 2584.05 33.83 *L 0 *D sky130_fd_sc_hd__clkdlybuf4s18_2
*I *281:A I *C 2581.29 30.09 *L 0.00217 *D sky130_fd_sc_hd__clkdlybuf4s50_2

*CAP
1 *276:X 1.785e-05
2 *281:A 1.785e-05
3 *13:2 0.00013277
4 *13:3 0.00013971
5 *13:4 0.00021675
6 *13:5 0.00020981
7 *13:6 0.00015125
8 *13:7 0.00015125

*RES
1 *13:5 *281:A 4
2 *13:5 *13:4 1.64286
3 *13:7 *13:4 4
4 *13:7 *13:6 1.82143
5 *13:3 *13:6 4
6 *13:3 *13:2 0.821429
7 *13:2 *276:X 4
*END

*D_NET *14 0.00089812

*CONN
*I *258:X O *C 2552.31 28.39 *L 0 *D sky130_fd_sc_hd__clkdlybuf4s18_2
*I *262:A I *C 2555.53 27.71 *L 0.00217 *D sky130_fd_sc_hd__clkdlybuf4s50_2

*CAP
1 *258:X 1.785e-05
2 *262:A 1.785e-05
3 *14:2 9.608e-05
4 *14:3 0.00039264
5 *14:4 0.0003737

*RES
1 *14:4 *258:X 4
2 *14:4 *14:3 2.875
3 *14:2 *262:A 4
4 *14:3 *14:2 0.910714
*END

*D_NET *15 0.00094058

*CONN
*I *277:X O *C 2594.17 28.39 *L 0 *D sky130_fd_sc_hd__clkdlybuf4s18_2
*I *283:A I *C 2591.41 24.65 *L 0.00217 *D sky130_fd_sc_hd__clkdlybuf4s50_2

*CAP
1 *277:X 1.785e-05
2 *283:A 1.785e-05
3 *15:2 0.00025367
4 *15:3 0.00024673
5 *15:4 0.0001683
6 *15:5 0.0001683
7 *15:7 6.788e-05

*RES
1 *15:3 *283:A 4
2 *15:3 *15:2 2.46429
3 *15:5 *15:2 4
4 *15:5 *15:4 1.82143
5 *15:7 *277:X 4
6 *15:7 *15:4 4
7 *15:6 *15:7 0.393389
*END

*D_NET *16 0.00110442

*CONN
*I *278:X O *C 2560.59 39.27 *L 0 *D sky130_fd_sc_hd__clkdlybuf4s18_2
*I *282:A I *C 2556.91 35.53 *L 0.00217 *D sky130_fd_sc_hd__clkdlybuf4s50_2

*CAP
1 *278:X 1.785e-05
2 *282:A 1.785e-05
3 *16:2 0.00025367
4 *16:3 0.00024673
5 *16:4 0.00013038
6 *16:5 0.00015031
7 *16:6 0.00013732
8 *16:7 0.00015031

*RES
1 *16:3 *282:A 4
2 *16:3 *16:2 2.46429
3 *16:7 *16:2 4
4 *16:7 *16:5 1.82143
5 *16:6 *16:5 4
6 *16:6 *16:4 0.821429
7 *16:4 *278:X 4
*END

*D_NET *17 0.00054158

*CONN
*I *298:A I *C 2553.23 22.27 *L 0.00206 *D sky130_fd_sc_hd__clkdlybuf4s18_2
*I *314:Y O *C 2556.91 22.61 *L 0 *D sky130_fd_sc_hd__nor2b_1

*CAP
1 *298:A 1.785e-05
2 *314:Y 1.783e-05
3 *17:2 0.00023957
4 *17:3 2.676e-05
5 *17:4 0.00023957

*RES
1 *17:4 *298:A 4
2 *17:4 *17:2 2.875
3 *17:3 *17:2 4
4 *17:3 *314:Y 34.6353
*END

*D_NET *18 0.00137498

*CONN
*I *216:X O *C 2912.03 17.51 *L 0 *D sky130_fd_sc_hd__dlygate4sd2_1
*I *228:D I *C 2909.27 11.73 *L 0.00158 *D sky130_fd_sc_hd__dfxtp_1

*CAP
1 *216:X 1.785e-05
2 *228:D 1.785e-05
3 *18:3 0.00034401
4 *18:4 4.086e-05
5 *18:5 0.00027783
6 *18:6 0.00035095
7 *18:7 0.00027783
8 *18:8 4.78e-05

*RES
1 *18:3 *216:X 4
2 *18:6 *18:3 2.46429
3 *18:5 *18:6 4
4 *18:4 *228:D 4
5 *18:7 *18:5 3.94643
6 *18:8 *18:4 0.0669643
7 *18:8 *18:7 4
8 *18:2 *18:8 0.340605
*END

*D_NET *19 0.00088354

*CONN
*I *259:X O *C 2595.09 22.95 *L 0 *D sky130_fd_sc_hd__clkdlybuf4s25_1
*I *260:A I *C 2594.63 16.83 *L 0.00205 *D sky130_fd_sc_hd__clkdlybuf4s50_1

*CAP
1 *259:X 1.785e-05
2 *260:A 1.785e-05
3 *19:2 0.00030547
4 *19:3 0.00030547
5 *19:4 8.798e-05
6 *19:5 8.104e-05
7 *19:7 6.788e-05

*RES
1 *19:5 *260:A 4
2 *19:5 *19:4 0.410714
3 *19:3 *19:4 4
4 *19:3 *19:2 3.94643
5 *19:7 *259:X 4
6 *19:7 *19:2 4
7 *19:6 *19:7 0.393389
*END

*D_NET *20 0.00078958

*CONN
*I *299:X O *C 2603.37 28.39 *L 0 *D sky130_fd_sc_hd__clkdlybuf4s25_1
*I *300:A I *C 2601.53 30.09 *L 0.00205 *D sky130_fd_sc_hd__clkdlybuf4s50_1

*CAP
1 *299:X 1.785e-05
2 *300:A 1.785e-05
3 *20:2 0.00011505
4 *20:3 0.00011505
5 *20:5 0.00023142
6 *20:6 6.788e-05
7 *20:7 0.00022448

*RES
1 *20:7 *300:A 4
2 *20:7 *20:5 1.64286
3 *20:2 *20:5 4
4 *20:3 *20:2 1.51786
5 *20:6 *299:X 4
6 *20:6 *20:3 4
7 *20:4 *20:6 0.393389
*END

*D_NET *21 0.00115334

*CONN
*I *239:X O *C 2536.21 23.97 *L 0 *D sky130_fd_sc_hd__clkdlybuf4s18_2
*I *243:A I *C 2533.45 30.09 *L 0.00205 *D sky130_fd_sc_hd__clkdlybuf4s50_1

*CAP
1 *239:X 1.785e-05
2 *243:A 1.785e-05
3 *21:3 0.00031589
4 *21:4 0.00021246
5 *21:5 0.00031589
6 *21:6 6.788e-05
7 *21:7 0.00020552

*RES
1 *21:7 *243:A 4
2 *21:7 *21:4 2.46429
3 *21:3 *21:4 4
4 *21:5 *21:3 3.94643
5 *21:6 *239:X 4
6 *21:6 *21:5 4
7 *21:2 *21:6 0.393389
*END

*D_NET *22 0.0008793

*CONN
*I *279:X O *C 2618.09 39.27 *L 0 *D sky130_fd_sc_hd__clkdlybuf4s25_1
*I *280:A I *C 2614.87 35.53 *L 0.00205 *D sky130_fd_sc_hd__clkdlybuf4s50_1

*CAP
1 *279:X 1.785e-05
2 *280:A 1.785e-05
3 *22:2 0.00014763
4 *22:3 0.00014763
5 *22:4 0.0002437
6 *22:5 0.00023676
7 *22:7 6.788e-05

*RES
1 *22:5 *280:A 4
2 *22:5 *22:4 2.875
3 *22:3 *22:4 4
4 *22:3 *22:2 1.82143
5 *22:7 *279:X 4
6 *22:7 *22:2 4
7 *22:6 *22:7 0.393389
*END

*D_NET *23 0.0014714

*CONN
*I *217:X O *C 2705.03 17.51 *L 0 *D sky130_fd_sc_hd__clkdlybuf4s18_2
*I *229:D I *C 2702.27 11.73 *L 0.00158 *D sky130_fd_sc_hd__dfxtp_1

*CAP
1 *217:X 1.785e-05
2 *229:D 1.785e-05
3 *23:3 0.00037175
4 *23:4 4.393e-05
5 *23:5 9.565e-05
6 *23:6 0.00037869
7 *23:7 7.702e-05
8 *23:8 6.259e-05
9 *23:9 8.122e-05
10 *23:10 5.087e-05
11 *23:11 0.00013699
12 *23:12 0.00013699

*RES
1 *23:3 *217:X 4
2 *23:6 *23:3 2.46429
3 *23:5 *23:6 4
4 *23:7 *23:5 0.910714
5 *23:11 *23:7 0.410714
6 *23:12 *23:11 2.125
7 *23:12 *23:8 0.410714
8 *23:4 *229:D 4
9 *23:9 *23:8 0.910714
10 *23:10 *23:4 0.0669643
11 *23:10 *23:9 4
12 *23:2 *23:10 0.340605
*END

*D_NET *24 0.00154182

*CONN
*I *218:X O *C 2526.09 17.51 *L 0 *D sky130_fd_sc_hd__clkdlybuf4s25_1
*I *223:A I *C 2522.87 11.39 *L 0.00157 *D sky130_fd_sc_hd__dlygate4sd3_1

*CAP
1 *218:X 1.785e-05
2 *223:A 1.785e-05
3 *24:2 0.00034461
4 *24:3 0.00035155
5 *24:4 0.00037104
6 *24:5 0.00037104
7 *24:7 6.788e-05

*RES
1 *24:2 *218:X 4
2 *24:3 *24:2 2.46429
3 *24:4 *24:3 4
4 *24:5 *24:4 3.94643
5 *24:7 *223:A 4
6 *24:7 *24:5 4
7 *24:6 *24:7 0.393389
*END

*D_NET *25 0.00179346

*CONN
*I *219:X O *C 2641.09 12.07 *L 0 *D sky130_fd_sc_hd__clkdlybuf4s25_2
*I *222:A I *C 2635.57 13.77 *L 0.00157 *D sky130_fd_sc_hd__dlygate4sd3_1

*CAP
1 *219:X 1.785e-05
2 *222:A 1.785e-05
3 *25:2 0.00018437
4 *25:3 0.00017743
5 *25:4 0.00057306
6 *25:5 0.00012145
7 *25:6 0.00012145
8 *25:7 0.00058

*RES
1 *25:3 *222:A 4
2 *25:3 *25:2 1.23214
3 *25:5 *25:2 4
4 *25:6 *25:5 1.51786
5 *25:7 *25:6 4
6 *25:7 *25:4 3.28571
7 *25:4 *219:X 4
*END

*D_NET *26 0.0183351

*CONN
*I *174:X O *C 2627.75 18.53 *L 0 *D sky130_fd_sc_hd__clkbuf_2
*I *170:A I *C 2624.53 24.65 *L 0.00241 *D sky130_fd_sc_hd__buf_4
*I *233:A I *C 2521.49 11.39 *L 0.00237 *D sky130_fd_sc_hd__nor2b_1

*CAP
1 *174:X 1.785e-05
2 *170:A 1.785e-05
3 *233:A 1.785e-05
4 *26:3 0.00020722
5 *26:4 0.00020028
6 *26:5 0.00025663
7 *26:6 0.0002822
8 *26:7 0.00036033
9 *26:8 0.00036727
10 *26:9 0.00219668
11 *26:10 0.00220678
12 *26:11 0.00087919
13 *26:12 0.00311199
14 *26:13 0.00063861
15 *26:16 0.00027378
16 *26:17 6.788e-05
17 *26:18 0.00037427
18 *26:19 0.00014975
19 *26:20 0.00286131
20 *26:21 6.788e-05
21 *26:9 *67:5 0.00037399
22 *26:10 *67:6 0.00037399
23 *26:13 *69:42 6.841e-05
24 *26:11 *69:43 6.841e-05
25 *26:13 *69:43 3.649e-05
26 *26:11 *69:44 3.649e-05
27 *26:11 *69:43 4.105e-05
28 *26:12 *69:44 4.105e-05
29 *26:12 *69:45 0.00010577
30 *26:20 *69:46 0.00010577
31 *26:12 *69:46 4.297e-05
32 *26:20 *69:47 4.297e-05
33 *26:12 *69:43 0.0001049
34 *26:20 *69:44 0.0001049
35 *26:12 *69:44 3.649e-05
36 *26:20 *69:48 3.649e-05
37 *26:9 *99:24 0.00038634
38 *26:10 *99:25 0.00038634
39 *26:13 *99:24 0.00012745
40 *26:11 *99:25 0.00012745
41 *26:9 *88:3 2.314e-05
42 *26:10 *88:4 2.314e-05
43 *26:13 *88:3 6.841e-05
44 *26:11 *88:4 6.841e-05
45 *26:12 *88:5 0.00047433
46 *26:20 *88:6 0.00047433

*RES
1 *26:21 *233:A 4
2 *26:15 *26:21 0.393389
3 *26:4 *26:21 4
4 *26:4 *26:3 2.05357
5 *26:20 *26:3 4
6 *26:20 *26:12 7.49493
7 *26:12 *26:11 0.6486
8 *26:11 *26:13 1.87373
9 *26:13 *26:10 0.0955667
10 *26:10 *26:9 6.0536
11 *26:6 *26:9 4
12 *26:6 *26:5 2.5625
13 *26:7 *174:X 4
14 *26:5 *26:19 0.410714
15 *26:8 *26:7 2.875
16 *26:19 *26:18 2.73214
17 *26:18 *26:8 4
18 *26:18 *26:16 3.94643
19 *26:17 *170:A 4
20 *26:17 *26:16 4
21 *26:14 *26:17 0.393389
*END

*D_NET *27 0.00156762

*CONN
*I *237:A I *C 2623.15 19.21 *L 0.00206 *D sky130_fd_sc_hd__clkdlybuf4s18_2
*I *240:X O *C 2627.29 17.51 *L 0 *D sky130_fd_sc_hd__clkdlybuf4s25_2

*CAP
1 *237:A 1.783e-05
2 *240:X 1.785e-05
3 *27:2 0.00014482
4 *27:3 0.00014482
5 *27:4 0.00049355
6 *27:5 0.00050049
7 *27:6 8.936e-05
8 *27:7 4.269e-05
9 *27:8 8.242e-05
10 *27:9 3.379e-05

*RES
1 *27:7 *237:A 34.6353
2 *27:9 *27:7 51.2
3 *27:8 *27:9 4
4 *27:8 *27:6 0.410714
5 *27:2 *27:6 4
6 *27:3 *27:2 0.910714
7 *27:5 *27:3 4
8 *27:5 *27:4 3.69643
9 *27:4 *240:X 4
*END

*D_NET *28 0.00302454

*CONN
*I *241:X O *C 2601.99 13.09 *L 0 *D sky130_fd_sc_hd__clkdlybuf4s50_1
*I *246:A I *C 2587.27 13.77 *L 0.00157 *D sky130_fd_sc_hd__dlygate4sd3_1

*CAP
1 *241:X 1.785e-05
2 *246:A 1.785e-05
3 *28:2 0.00013277
4 *28:3 0.00036781
5 *28:4 0.00010583