*SPEF "IEEE 1481-1998"
*DESIGN "fir"
*DATE "Fri Aug 28 19:50:25 2020"
*VENDOR "Cadence Design Systems, Inc."
*PROGRAM "Innovus"
*VERSION "18.10-p002_1"
*DESIGN_FLOW "PIN_CAP NONE" "NAME_SCOPE LOCAL"
*DIVIDER /
*DELIMITER :
*BUS_DELIMITER []
*T_UNIT 1 NS
*C_UNIT 1 PF
*R_UNIT 1 OHM
*L_UNIT 1 HENRY

// MMMC spef file for corner 'PVT_0P77V_0C.hold_rc'

*NAME_MAP

*1 FE_PHN82_In_0
*2 FE_PHN81_In_3
*3 FE_PHN80_delay_chain3_2
*4 FE_PHN79_In_0
*5 FE_PHN78_In_2
*6 FE_PHN77_In_1
*7 FE_PHN76_delay_chain3_2
*8 FE_PHN75_In_1
*9 FE_PHN74_In_2
*10 FE_PHN73_In_0
*11 FE_PHN72_In_3
*12 FE_PHN71_delay_chain0_2
*13 FE_PHN70_delay_chain3_1
*14 FE_PHN69_delay_chain1_0
*15 FE_PHN68_delay_chain1_2
*16 FE_PHN67_delay_chain0_3
*17 FE_PHN66_delay_chain1_3
*18 FE_PHN65_delay_chain1_1
*19 FE_PHN64_delay_chain0_1
*20 FE_PHN63_delay_chain2_1
*21 FE_PHN62_delay_chain2_2
*22 FE_PHN61_delay_chain3_0
*23 FE_PHN60_delay_chain2_3
*24 FE_PHN59_delay_chain2_0
*25 FE_PHN58_delay_chain0_0
*26 FE_PHN57_delay_chain3_3
*27 FE_PHN56_In_2
*28 FE_PHN55_In_0
*29 FE_PHN54_In_1
*30 FE_PHN53_delay_chain2_3
*31 FE_PHN52_delay_chain3_0
*32 FE_PHN51_delay_chain3_3
*33 FE_PHN50_delay_chain2_0
*34 FE_PHN49_delay_chain0_1
*35 FE_PHN48_delay_chain2_1
*36 FE_PHN47_delay_chain0_0
*37 FE_PHN46_delay_chain2_2
*38 FE_PHN45_delay_chain1_3
*39 FE_PHN44_delay_chain3_2
*40 FE_PHN43_delay_chain1_1
*41 FE_PHN42_delay_chain0_2
*42 FE_PHN41_delay_chain1_2
*43 FE_PHN40_delay_chain1_0
*44 FE_PHN39_delay_chain3_1
*45 FE_PHN38_delay_chain0_3
*46 FE_PHN37_In_3
*47 FE_PHN36_In_1
*48 FE_PHN35_In_3
*49 FE_PHN34_In_0
*50 FE_PHN33_In_2
*51 FE_PHN32_delay_chain3_2
*52 FE_PHN31_delay_chain3_3
*53 FE_PHN30_delay_chain1_0
*54 FE_PHN29_delay_chain2_0
*55 FE_PHN28_delay_chain2_1
*56 FE_PHN27_delay_chain3_1
*57 FE_PHN26_delay_chain0_0
*58 FE_PHN25_delay_chain2_3
*59 FE_PHN24_delay_chain1_1
*60 FE_PHN23_delay_chain2_2
*61 FE_PHN22_delay_chain3_0
*62 FE_PHN21_delay_chain1_2
*63 FE_PHN20_delay_chain1_3
*64 FE_PHN19_delay_chain0_3
*65 FE_PHN18_delay_chain0_1
*66 FE_PHN17_delay_chain0_2
*67 FE_OFN16_Out_0
*68 FE_OFN15_Out_1
*69 FE_OFN14_Out_2
*70 FE_OFN13_Out_3
*71 FE_OFN12_Out_4
*72 FE_OFN11_Out_5
*73 FE_OFN10_Out_6
*74 FE_OFN9_Out_7
*75 FE_OFN1_Out_10
*76 FE_OFN0_Out_10
*77 clk
*78 In[3]
*79 In[2]
*80 In[1]
*81 In[0]
*82 Out[15]
*83 Out[14]
*84 Out[13]
*85 Out[12]
*86 Out[11]
*87 Out[10]
*88 Out[9]
*89 Out[8]
*90 Out[7]
*91 Out[6]
*92 Out[5]
*93 Out[4]
*94 Out[3]
*95 Out[2]
*96 Out[1]
*97 Out[0]
*98 delay_chain0[3]
*99 delay_chain0[2]
*100 delay_chain0[1]
*101 delay_chain0[0]
*102 delay_chain1[3]
*103 delay_chain1[2]
*104 delay_chain1[1]
*105 delay_chain1[0]
*106 delay_chain2[3]
*107 delay_chain2[2]
*108 delay_chain2[1]
*109 delay_chain2[0]
*110 delay_chain3[3]
*111 delay_chain3[2]
*112 delay_chain3[1]
*113 delay_chain3[0]
*114 delay_chain4[3]
*115 delay_chain4[2]
*116 delay_chain4[1]
*117 delay_chain4[0]
*118 add0/n_0
*119 add0/n_1
*120 add0/n_3
*121 add0/n_4
*122 add0/n_5
*123 add0/n_6
*124 add0/n_7
*125 add0/n_8
*126 add0/n_9
*127 add0/n_10
*128 add0/n_11
*129 add0/n_12
*130 add0/n_13
*131 add0/n_14
*132 add0/n_15
*133 add0/n_16
*134 add0/n_17
*135 add0/n_18
*136 add0/n_20
*137 add0/n_21
*138 add0/n_22
*139 add0/n_23
*140 add0/n_24
*141 add0/n_25
*142 add0/n_26
*143 add0/n_27
*144 add0/n_28
*145 add0/n_29
*146 add0/n_30
*147 add0/n_31
*148 add0/n_32
*149 add0/n_33
*150 add0/n_34
*151 add0/n_35
*152 add0/n_37
*153 add0/n_38
*154 add0/n_39
*155 add0/n_40
*156 add0/n_41
*157 add0/n_42
*158 add0/n_43
*159 add0/n_44
*160 add0/n_45
*161 add0/n_46
*162 add0/n_47
*163 add0/n_48
*164 add0/n_49
*165 add0/n_50
*166 add0/n_51
*167 add0/n_52
*168 add0/n_53
*169 add0/n_54
*170 add0/n_55
*171 add0/n_56
*172 add0/n_57
*173 add0/n_58
*174 add0/n_61
*175 add0/n_63
*176 add0/n_65
*177 add0/n_67
*178 FE_PHC82_In_0
*179 FE_PHC81_In_3
*180 FE_PHC80_delay_chain3_2
*181 FE_PHC79_In_0
*182 FE_PHC78_In_2
*183 FE_PHC77_In_1
*184 FE_PHC76_delay_chain3_2
*185 FE_PHC75_In_1
*186 FE_PHC74_In_2
*187 FE_PHC73_In_0
*188 FE_PHC72_In_3
*189 FE_PHC71_delay_chain0_2
*190 FE_PHC70_delay_chain3_1
*191 FE_PHC69_delay_chain1_0
*192 FE_PHC68_delay_chain1_2
*193 FE_PHC67_delay_chain0_3
*194 FE_PHC66_delay_chain1_3
*195 FE_PHC65_delay_chain1_1
*196 FE_PHC64_delay_chain0_1
*197 FE_PHC63_delay_chain2_1
*198 FE_PHC62_delay_chain2_2
*199 FE_PHC61_delay_chain3_0
*200 FE_PHC60_delay_chain2_3
*201 FE_PHC59_delay_chain2_0
*202 FE_PHC58_delay_chain0_0
*203 FE_PHC57_delay_chain3_3
*204 FE_PHC56_In_2
*205 FE_PHC55_In_0
*206 FE_PHC54_In_1
*207 FE_PHC53_delay_chain2_3
*208 FE_PHC52_delay_chain3_0
*209 FE_PHC51_delay_chain3_3
*210 FE_PHC50_delay_chain2_0
*211 FE_PHC49_delay_chain0_1
*212 FE_PHC48_delay_chain2_1
*213 FE_PHC47_delay_chain0_0
*214 FE_PHC46_delay_chain2_2
*215 FE_PHC45_delay_chain1_3
*216 FE_PHC44_delay_chain3_2
*217 FE_PHC43_delay_chain1_1
*218 FE_PHC42_delay_chain0_2
*219 FE_PHC41_delay_chain1_2
*220 FE_PHC40_delay_chain1_0
*221 FE_PHC39_delay_chain3_1
*222 FE_PHC38_delay_chain0_3
*223 FE_PHC37_In_3
*224 FE_PHC36_In_1
*225 FE_PHC35_In_3
*226 FE_PHC34_In_0
*227 FE_PHC33_In_2
*228 FE_PHC32_delay_chain3_2
*229 FE_PHC31_delay_chain3_3
*230 FE_PHC30_delay_chain1_0
*231 FE_PHC29_delay_chain2_0
*232 FE_PHC28_delay_chain2_1
*233 FE_PHC27_delay_chain3_1
*234 FE_PHC26_delay_chain0_0
*235 FE_PHC25_delay_chain2_3
*236 FE_PHC24_delay_chain1_1
*237 FE_PHC23_delay_chain2_2
*238 FE_PHC22_delay_chain3_0
*239 FE_PHC21_delay_chain1_2
*240 FE_PHC20_delay_chain1_3
*241 FE_PHC19_delay_chain0_3
*242 FE_PHC18_delay_chain0_1
*243 FE_PHC17_delay_chain0_2
*244 FE_OFC16_Out_0
*245 FE_OFC15_Out_1
*246 FE_OFC14_Out_2
*247 FE_OFC13_Out_3
*248 FE_OFC12_Out_4
*249 FE_OFC11_Out_5
*250 FE_OFC10_Out_6
*251 FE_OFC9_Out_7
*252 FE_OFC8_Out_10
*253 FE_OFC7_Out_10
*254 FE_OFC6_Out_10
*255 FE_OFC5_Out_10
*256 FE_OFC4_Out_10
*257 FE_OFC3_Out_10
*258 FE_OFC2_Out_10
*259 FE_OFC1_Out_10
*260 FE_OFC0_Out_10
*261 add0/g816__2398
*262 add0/g817__5107
*263 add0/g818__6260
*264 add0/g819__4319
*265 add0/g820__8428
*266 add0/g821__5526
*267 add0/g822__6783
*268 add0/g823__3680
*269 add0/g824__1617
*270 add0/g825__2802
*271 add0/g826__1705
*272 add0/g827__5122
*273 add0/g828__8246
*274 add0/g829__7098
*275 add0/g830__6131
*276 add0/g831__1881
*277 add0/g832__5115
*278 add0/g833
*279 add0/g834
*280 add0/g836__7482
*281 add0/g837__4733
*282 add0/g838__6161
*283 add0/g839
*284 add0/g840
*285 add0/g841
*286 add0/g842__9315
*287 add0/g843__9945
*288 add0/g844__2883
*289 add0/g845__2346
*290 add0/g848__1666
*291 add0/g849__7410
*292 add0/g850__6417
*293 add0/g851__5477
*294 add0/g852__2398
*295 add0/g853__5107
*296 add0/g855__6260
*297 add0/g856__4319
*298 add0/g857__8428
*299 add0/g858__5526
*300 add0/g859
*301 add0/g860__6783
*302 add0/g861__3680
*303 add0/g862__1617
*304 add0/g863__2802
*305 add0/g864__1705
*306 add0/g865__5122
*307 add0/g866__8246
*308 add0/g867
*309 add0/g868__7098
*310 add0/g869__6131
*311 add0/g870__1881
*312 add0/g871__5115
*313 add0/g873__7482
*314 add0/g874__4733
*315 add0/g875__6161
*316 add0/g876__9315
*317 add0/g877
*318 add0/g878__9945
*319 add0/g879__2883
*320 add0/g880__2346
*321 add0/g881
*322 add0/g882__1666
*323 add0/g883__7410
*324 add0/g884__6417
*325 add0/g885
*326 add0/g886
*327 add0/g887
*328 add0/g2__5477
*329 add0/g888__2398
*330 delay_chain4_reg\[3\]
*331 delay_chain4_reg\[0\]
*332 delay_chain4_reg\[2\]
*333 delay_chain4_reg\[1\]
*334 delay_chain3_reg\[0\]
*335 delay_chain3_reg\[2\]
*336 delay_chain3_reg\[3\]
*337 delay_chain3_reg\[1\]
*338 delay_chain2_reg\[1\]
*339 delay_chain2_reg\[3\]
*340 delay_chain2_reg\[2\]
*341 delay_chain2_reg\[0\]
*342 delay_chain1_reg\[3\]
*343 delay_chain1_reg\[2\]
*344 delay_chain1_reg\[0\]
*345 delay_chain1_reg\[1\]
*346 delay_chain0_reg\[1\]
*347 delay_chain0_reg\[2\]
*348 delay_chain0_reg\[3\]
*349 delay_chain0_reg\[0\]


*PORTS

*77 I *C 289.872 0
*78 I *C 264.6 0
*79 I *C 239.112 0
*80 I *C 213.624 0
*81 I *C 188.352 0
*82 O *C 162.864 0
*83 O *C 137.376 0
*84 O *C 111.888 0
*85 O *C 86.616 0
*86 O *C 61.128 0
*87 O *C 35.64 0
*88 O *C 10.152 0
*89 O *C 289.872 0
*90 O *C 255.024 0
*91 O *C 220.176 0
*92 O *C 185.04 0
*93 O *C 150.192 0
*94 O *C 115.344 0
*95 O *C 80.208 0
*96 O *C 45.36 0
*97 O *C 10.224 0


*D_NET *1 9.41753e-05

*CONN
*I *178:Y O *C 191.448 17.316 *L 0 *D BUFx2_ASAP7_75t_SL
*I *181:A I *C 190.872 13.5 *L 0.0002 *D HB1xp67_ASAP7_75t_R

*CAP
1 *178:Y 7.33137e-06
2 *181:A 3.97563e-05
3 *1:2 4.70877e-05

*RES
1 *181:A *1:2 85.4675
2 *1:2 *178:Y 18.5937
*END

*D_NET *2 4.98295e-05

*CONN
*I *179:Y O *C 264.24 10.836 *L 0 *D BUFx2_ASAP7_75t_SL
*I *188:A I *C 264.744 11.34 *L 0.000598 *D HB4xp67_ASAP7_75t_SRAM

*CAP
1 *188:A 1.95503e-05
2 *179:Y 5.36442e-06
3 *2:2 2.49147e-05

*RES
1 *2:2 *179:Y 23.9233
2 *188:A *2:2 43.8195
*END

*D_NET *3 5.49555e-05

*CONN
*I *180:Y O *C 194.472 21.996 *L 0 *D BUFx2_ASAP7_75t_SL
*I *184:A I *C 193.896 21.492 *L 0.000328 *D HB2xp67_ASAP7_75t_SRAM

*CAP
1 *180:Y 7.86781e-06
2 *184:A 1.96099e-05
3 *3:2 2.74777e-05

*RES
1 *184:A *3:2 55.9075
2 *3:2 *180:Y 19.7307
*END

*D_NET *4 8.07047e-05

*CONN
*I *181:Y O *C 191.448 13.356 *L 0 *D HB1xp67_ASAP7_75t_R
*I *187:A I *C 190.872 15.66 *L 0.000598 *D HB4xp67_ASAP7_75t_SRAM

*CAP
1 *181:Y 2.02656e-06
2 *187:A 3.83258e-05
3 *4:2 4.03523e-05

*RES
1 *187:A *4:2 73.5298
2 *4:2 *181:Y 11.7722
*END

*D_NET *5 6.93798e-05

*CONN
*I *182:Y O *C 241.344 11.196 *L 0 *D BUFx2_ASAP7_75t_SL
*I *186:A I *C 240.552 10.692 *L 0.000598 *D HB4xp67_ASAP7_75t_SRAM

*CAP
1 *186:A 2.15173e-05
2 *182:Y 1.31726e-05
3 *5:2 3.46899e-05

*RES
1 *5:2 *182:Y 25.4153
2 *186:A *5:2 53.1284
*END

*D_NET *6 8.33273e-05

*CONN
*I *183:Y O *C 218.448 11.196 *L 0 *D HB1xp67_ASAP7_75t_R
*I *185:A I *C 216.36 11.34 *L 0.000598 *D HB4xp67_ASAP7_75t_SRAM

*CAP
1 *183:Y 2.14577e-06
2 *185:A 3.95179e-05
3 *6:2 4.16636e-05

*RES
1 *185:A *6:2 44.7429
2 *6:2 *183:Y 11.2668
*END

*D_NET *7 3.61204e-05

*CONN
*I *184:Y O *C 194.616 21.636 *L 0 *D HB2xp67_ASAP7_75t_SRAM
*I *216:A I *C 194.76 19.98 *L 0.000598 *D HB4xp67_ASAP7_75t_SRAM

*CAP
1 *216:A 1.35303e-05
2 *184:Y 4.52995e-06
3 *7:2 1.80602e-05

*RES
1 *7:2 *184:Y 23.9865
2 *216:A *7:2 34.7241
*END

*D_NET *8 7.85589e-05

*CONN
*I *185:Y O *C 217.512 11.196 *L 0 *D HB4xp67_ASAP7_75t_SRAM
*I *206:A I *C 214.848 11.34 *L 0.000598 *D HB4xp67_ASAP7_75t_SRAM

*CAP
1 *185:Y 1.78814e-06
2 *206:A 3.74913e-05
3 *8:2 3.92795e-05

*RES
1 *206:A *8:2 53.2699
2 *8:2 *185:Y 11.2668
*END

*D_NET *9 0.000110745

*CONN
*I *186:Y O *C 241.704 10.836 *L 0 *D HB4xp67_ASAP7_75t_SRAM
*I *204:A I *C 239.256 11.34 *L 0.000598 *D HB4xp67_ASAP7_75t_SRAM

*CAP
1 *204:A 2.2471e-05
2 *186:Y 3.29018e-05
3 *9:2 5.53727e-05

*RES
1 *9:2 *186:Y 48.1538
2 *204:A *9:2 55.9075
*END

*D_NET *10 7.76052e-05

*CONN
*I *187:Y O *C 192.024 15.516 *L 0 *D HB4xp67_ASAP7_75t_SRAM
*I *205:A I *C 189.36 15.66 *L 0.000598 *D HB4xp67_ASAP7_75t_SRAM

*CAP
1 *187:Y 1.2517e-06
2 *205:A 3.75509e-05
3 *10:2 3.88026e-05

*RES
1 *205:A *10:2 53.2699
2 *10:2 *187:Y 11.2668
*END

*D_NET *11 6.55651e-05

*CONN
*I *188:Y O *C 265.896 11.196 *L 0 *D HB4xp67_ASAP7_75t_SRAM
*I *223:A I *C 264.744 10.692 *L 0.000598 *D HB4xp67_ASAP7_75t_SRAM

*CAP
1 *188:Y 2.26498e-06
2 *223:A 1.5676e-05
3 *11:2 1.71065e-05
4 *11:3 3.05176e-05

*RES
1 *223:A *11:3 27.1206
2 *11:3 *11:2 39.5876
3 *11:2 *188:Y 12.3407
*END

*D_NET *12 7.52211e-05

*CONN
*I *189:Y O *C 215.136 13.356 *L 0 *D HB2xp67_ASAP7_75t_SRAM
*I *218:A I *C 213.336 15.012 *L 0.000598 *D HB4xp67_ASAP7_75t_SRAM

*CAP
1 *189:Y 2.80142e-06
2 *218:A 2.31862e-05
3 *12:2 1.44243e-05
4 *12:3 3.48091e-05

*RES
1 *218:A *12:3 39.0583
2 *12:2 *189:Y 11.7722
3 *12:3 *12:2 35.0399
*END

*D_NET *13 0.000135899

*CONN
*I *190:Y O *C 197.208 17.316 *L 0 *D HB2xp67_ASAP7_75t_SRAM
*I *221:A I *C 199.944 15.012 *L 0.000598 *D HB4xp67_ASAP7_75t_SRAM

*CAP
1 *190:Y 6.79493e-05
2 *221:A 6.79493e-05

*RES
1 *221:A *190:Y 109.746
*END

*D_NET *14 6.56843e-05

*CONN
*I *191:Y O *C 180.144 13.356 *L 0 *D HB2xp67_ASAP7_75t_SRAM
*I *220:A I *C 179.424 15.66 *L 0.000598 *D HB4xp67_ASAP7_75t_SRAM

*CAP
1 *191:Y 8.88109e-06
2 *220:A 2.39611e-05
3 *14:2 3.28422e-05

*RES
1 *220:A *14:2 64.4344
2 *14:2 *191:Y 20.8676
*END

*D_NET *15 6.03199e-05

*CONN
*I *192:Y O *C 195.048 15.156 *L 0 *D HB2xp67_ASAP7_75t_SRAM
*I *219:A I *C 194.976 17.172 *L 0.000598 *D HB4xp67_ASAP7_75t_SRAM

*CAP
1 *219:A 2.39015e-05
2 *192:Y 2.74181e-06
3 *15:2 2.74181e-05
4 *15:3 6.25849e-06

*RES
1 *15:3 *192:Y 11.7722
2 *15:2 *15:3 12.1511
3 *219:A *15:2 51.778
*END

*D_NET *16 0.00030601

*CONN
*I *193:Y O *C 227.304 13.356 *L 0 *D HB3xp67_ASAP7_75t_L
*I *241:A I *C 212.904 13.5 *L 0.000598 *D HB4xp67_ASAP7_75t_SRAM

*CAP
1 *193:Y 1.37091e-06
2 *241:A 1.49012e-06
3 *16:2 0.000151515
4 *16:3 0.000151634

*RES
1 *16:3 *16:2 226.753
2 *241:A *16:3 11.2668
3 *16:2 *193:Y 11.2668
*END

*D_NET *17 6.17504e-05

*CONN
*I *194:Y O *C 206.928 15.156 *L 0 *D HB2xp67_ASAP7_75t_SRAM
*I *215:A I *C 205.992 13.5 *L 0.000598 *D HB4xp67_ASAP7_75t_SRAM

*CAP
1 *194:Y 5.126e-06
2 *215:A 1.04308e-05
3 *17:2 2.04444e-05
4 *17:3 2.57492e-05

*RES
1 *215:A *17:3 20.8676
2 *17:3 *17:2 37.3138
3 *17:2 *194:Y 15.7514
*END

*D_NET *18 0.000160098

*CONN
*I *195:Y O *C 205.848 12.996 *L 0 *D HB2xp67_ASAP7_75t_SRAM
*I *217:A I *C 201.24 12.852 *L 0.000598 *D HB4xp67_ASAP7_75t_SRAM

*CAP
1 *195:Y 5.65052e-05
2 *217:A 2.35438e-05
3 *18:2 8.0049e-05

*RES
1 *217:A *18:2 29.3945
2 *18:2 *195:Y 96.033
*END

*D_NET *19 0.000125289

*CONN
*I *196:Y O *C 207.144 12.996 *L 0 *D HB2xp67_ASAP7_75t_SRAM
*I *211:A I *C 210.96 12.852 *L 0.000598 *D HB4xp67_ASAP7_75t_SRAM

*CAP
1 *211:A 6.1214e-05
2 *196:Y 1.43051e-06
3 *19:2 6.26445e-05

*RES
1 *19:2 *196:Y 11.2668
2 *211:A *19:2 68.6183
*END

*D_NET *20 0.000113606

*CONN
*I *197:Y O *C 201.744 15.516 *L 0 *D HB2xp67_ASAP7_75t_SRAM
*I *212:A I *C 204.48 17.172 *L 0.000598 *D HB4xp67_ASAP7_75t_SRAM

*CAP
1 *197:Y 5.68032e-05
2 *212:A 5.68032e-05

*RES
1 *212:A *197:Y 98.8169
*END

*D_NET *21 4.43459e-05

*CONN
*I *198:Y O *C 197.64 21.636 *L 0 *D HB2xp67_ASAP7_75t_SRAM
*I *214:A I *C 196.92 19.98 *L 0.000598 *D HB4xp67_ASAP7_75t_SRAM

*CAP
1 *198:Y 1.72853e-06
2 *214:A 9.29832e-06
3 *21:2 1.28746e-05
4 *21:3 2.04444e-05

*RES
1 *214:A *21:3 20.8676
2 *21:3 *21:2 35.0399
3 *21:2 *198:Y 11.7722
*END

*D_NET *22 9.93013e-05

*CONN
*I *199:Y O *C 185.76 19.836 *L 0 *D HB2xp67_ASAP7_75t_SRAM
*I *208:A I *C 183.312 17.82 *L 0.000598 *D HB4xp67_ASAP7_75t_SRAM

*CAP
1 *199:Y 2.86102e-05
2 *208:A 2.10404e-05
3 *22:2 4.96507e-05

*RES
1 *208:A *22:2 63.8659
2 *22:2 *199:Y 48.1538
*END

*D_NET *23 4.66108e-05

*CONN
*I *200:Y O *C 212.544 15.516 *L 0 *D HB2xp67_ASAP7_75t_SRAM
*I *207:A I *C 211.824 17.172 *L 0.000598 *D HB4xp67_ASAP7_75t_SRAM

*CAP
1 *200:Y 9.35793e-06
2 *207:A 1.39475e-05
3 *23:2 2.33054e-05

*RES
1 *207:A *23:2 46.8121
2 *23:2 *200:Y 20.8676
*END

*D_NET *24 3.24249e-05

*CONN
*I *201:Y O *C 188.352 17.316 *L 0 *D HB2xp67_ASAP7_75t_SRAM
*I *210:A I *C 189.36 17.172 *L 0.000598 *D HB4xp67_ASAP7_75t_SRAM

*CAP
1 *210:A 1.47223e-05
2 *201:Y 1.49012e-06
3 *24:2 1.62125e-05

*RES
1 *24:2 *201:Y 11.2668
2 *210:A *24:2 27.1206
*END

*D_NET *25 4.36306e-05

*CONN
*I *202:Y O *C 184.896 13.356 *L 0 *D HB2xp67_ASAP7_75t_SRAM
*I *213:A I *C 185.688 15.012 *L 0.000598 *D HB4xp67_ASAP7_75t_SRAM

*CAP
1 *202:Y 2.18153e-05
2 *213:A 2.18153e-05

*RES
1 *213:A *202:Y 63.1319
*END

*D_NET *26 0.00012362

*CONN
*I *203:Y O *C 210.672 17.316 *L 0 *D HB3xp67_ASAP7_75t_R
*I *209:A I *C 206.64 17.172 *L 0.000598 *D HB4xp67_ASAP7_75t_SRAM

*CAP
1 *203:Y 4.97103e-05
2 *209:A 1.20997e-05
3 *26:2 6.181e-05

*RES
1 *209:A *26:2 43.4014
2 *26:2 *203:Y 66.913
*END

*D_NET *27 6.55651e-05

*CONN
*I *204:Y O *C 240.408 11.196 *L 0 *D HB4xp67_ASAP7_75t_SRAM
*I *227:A I *C 239.04 10.692 *L 0.000598 *D HB4xp67_ASAP7_75t_SRAM

*CAP
1 *204:Y 1.20401e-05
2 *227:A 2.07424e-05
3 *27:2 3.27826e-05

*RES
1 *227:A *27:2 51.9283
2 *27:2 *204:Y 23.7099
*END

*D_NET *28 8.33273e-05

*CONN
*I *205:Y O *C 190.512 15.516 *L 0 *D HB4xp67_ASAP7_75t_SRAM
*I *226:A I *C 189.36 13.5 *L 0.000598 *D HB4xp67_ASAP7_75t_SRAM

*CAP
1 *226:A 2.11596e-05
2 *205:Y 1.7941e-05
3 *28:2 2.37226e-05
4 *28:3 2.0504e-05

*RES
1 *28:3 *205:Y 31.0999
2 *28:2 *28:3 12.1511
3 *226:A *28:2 51.778
*END

*D_NET *29 0.000140071

*CONN
*I *206:Y O *C 216 11.196 *L 0 *D HB4xp67_ASAP7_75t_SRAM
*I *224:A I *C 211.824 11.34 *L 0.000598 *D HB4xp67_ASAP7_75t_SRAM

*CAP
1 *206:Y 6.18696e-05
2 *224:A 8.16584e-06
3 *29:2 7.00355e-05

*RES
1 *224:A *29:2 36.5797
2 *29:2 *206:Y 76.0083
*END

*D_NET *30 4.8399e-05

*CONN
*I *207:Y O *C 212.976 17.316 *L 0 *D HB4xp67_ASAP7_75t_SRAM
*I *235:A I *C 212.472 17.82 *L 0.000598 *D HB4xp67_ASAP7_75t_SRAM

*CAP
1 *207:Y 1.96695e-06
2 *235:A 2.22325e-05
3 *30:2 2.41995e-05

*RES
1 *235:A *30:2 53.0652
2 *30:2 *207:Y 11.7722
*END

*D_NET *31 4.44651e-05

*CONN
*I *208:Y O *C 184.464 17.676 *L 0 *D HB4xp67_ASAP7_75t_SRAM
*I *238:A I *C 184.176 17.172 *L 0.000598 *D HB4xp67_ASAP7_75t_SRAM

*CAP
1 *208:Y 3.09944e-06
2 *238:A 1.91331e-05
3 *31:2 2.22325e-05

*RES
1 *238:A *31:2 51.9283
2 *31:2 *208:Y 13.4776
*END

*D_NET *32 5.6982e-05

*CONN
*I *209:Y O *C 207.792 17.316 *L 0 *D HB4xp67_ASAP7_75t_SRAM
*I *229:A I *C 207.936 19.332 *L 0.000598 *D HB4xp67_ASAP7_75t_SRAM

*CAP
1 *229:A 2.18153e-05
2 *209:Y 6.67572e-06
3 *32:2 2.8491e-05

*RES
1 *32:2 *209:Y 23.9865
2 *229:A *32:2 51.778
*END

*D_NET *33 8.10623e-05

*CONN
*I *210:Y O *C 190.512 17.316 *L 0 *D HB4xp67_ASAP7_75t_SRAM
*I *231:A I *C 189.792 19.332 *L 0.000598 *D HB4xp67_ASAP7_75t_SRAM

*CAP
1 *210:Y 9.89437e-06
2 *231:A 3.06368e-05
3 *33:2 4.05312e-05

*RES
1 *231:A *33:2 70.6875
2 *33:2 *210:Y 18.0253
*END

*D_NET *34 9.31024e-05

*CONN
*I *211:Y O *C 212.112 12.996 *L 0 *D HB4xp67_ASAP7_75t_SRAM
*I *242:A I *C 209.448 12.852 *L 0.000598 *D HB4xp67_ASAP7_75t_SRAM

*CAP
1 *211:Y 1.66893e-06
2 *242:A 4.48823e-05
3 *34:2 4.65512e-05

*RES
1 *242:A *34:2 54.4068
2 *34:2 *211:Y 11.2668
*END

*D_NET *35 7.62939e-05

*CONN
*I *212:Y O *C 205.632 17.316 *L 0 *D HB4xp67_ASAP7_75t_SRAM
*I *232:A I *C 202.968 17.172 *L 0.000598 *D HB4xp67_ASAP7_75t_SRAM

*CAP
1 *212:Y 1.37091e-06
2 *232:A 3.67761e-05
3 *35:2 3.8147e-05

*RES
1 *232:A *35:2 55.5438
2 *35:2 *212:Y 11.2668
*END

*D_NET *36 8.74996e-05

*CONN
*I *213:Y O *C 186.84 15.156 *L 0 *D HB4xp67_ASAP7_75t_SRAM
*I *234:A I *C 184.176 15.012 *L 0.000598 *D HB4xp67_ASAP7_75t_SRAM

*CAP
1 *213:Y 1.37091e-06
2 *234:A 4.23789e-05
3 *36:2 4.37498e-05

*RES
1 *234:A *36:2 53.8384
2 *36:2 *213:Y 11.2668
*END

*D_NET *37 4.01735e-05

*CONN
*I *214:Y O *C 198.072 19.836 *L 0 *D HB4xp67_ASAP7_75t_SRAM
*I *237:A I *C 198.648 19.332 *L 0.000598 *D HB4xp67_ASAP7_75t_SRAM

*CAP
1 *214:Y 2.00868e-05
2 *237:A 2.00868e-05

*RES
1 *237:A *214:Y 64.9005
*END

*D_NET *38 0.000102162

*CONN
*I *215:Y O *C 207.144 13.356 *L 0 *D HB4xp67_ASAP7_75t_SRAM
*I *240:A I *C 208.152 17.172 *L 0.000598 *D HB4xp67_ASAP7_75t_SRAM

*CAP
1 *240:A 3.74913e-05
2 *215:Y 1.35899e-05
3 *38:2 5.10812e-05

*RES
1 *38:2 *215:Y 35.2925
2 *240:A *38:2 68.8318
*END

*D_NET *39 0.000167251

*CONN
*I *216:Y O *C 195.912 19.836 *L 0 *D HB4xp67_ASAP7_75t_SRAM
*I *228:A I *C 191.304 19.332 *L 0.000598 *D HB4xp67_ASAP7_75t_SRAM

*CAP
1 *216:Y 4.98295e-05
2 *228:A 1.42455e-05
3 *39:2 6.93798e-05
4 *39:3 3.37958e-05

*RES
1 *228:A *39:3 23.1414
2 *39:3 *39:2 44.1353
3 *39:2 *216:Y 72.0291
*END

*D_NET *40 0.000171661

*CONN
*I *217:Y O *C 202.392 12.996 *L 0 *D HB4xp67_ASAP7_75t_SRAM
*I *236:A I *C 198.432 15.012 *L 0.000598 *D HB4xp67_ASAP7_75t_SRAM

*CAP
1 *217:Y 3.3319e-05
2 *236:A 2.28286e-05
3 *40:2 6.30021e-05
4 *40:3 5.25117e-05

*RES
1 *236:A *40:3 36.7845
2 *40:2 *217:Y 45.8798
3 *40:3 *40:2 58.9153
*END

*D_NET *41 0.00010252

*CONN
*I *218:Y O *C 214.488 15.156 *L 0 *D HB4xp67_ASAP7_75t_SRAM
*I *243:A I *C 213.336 11.34 *L 0.000598 *D HB4xp67_ASAP7_75t_SRAM

*CAP
1 *243:A 3.61204e-05
2 *218:Y 1.51396e-05
3 *41:2 5.126e-05

*RES
1 *41:2 *218:Y 28.2576
2 *243:A *41:2 80.2232
*END

*D_NET *42 0.000156164

*CONN
*I *219:Y O *C 196.128 17.316 *L 0 *D HB4xp67_ASAP7_75t_SRAM
*I *239:A I *C 193.248 19.98 *L 0.000598 *D HB4xp67_ASAP7_75t_SRAM

*CAP
1 *219:Y 5.54323e-06
2 *239:A 3.91603e-05
3 *42:2 3.89218e-05
4 *42:3 7.25389e-05

*RES
1 *239:A *42:3 52.133
2 *42:2 *219:Y 16.8884
3 *42:3 *42:2 73.6953
*END

*D_NET *43 0.000165343

*CONN
*I *220:Y O *C 180.576 15.516 *L 0 *D HB4xp67_ASAP7_75t_SRAM
*I *230:A I *C 185.688 17.172 *L 0.000598 *D HB4xp67_ASAP7_75t_SRAM

*CAP
1 *220:Y 8.26716e-05
2 *230:A 8.26716e-05

*RES
1 *230:A *220:Y 152.113
*END

*D_NET *44 0.000274897

*CONN
*I *221:Y O *C 201.096 15.156 *L 0 *D HB4xp67_ASAP7_75t_SRAM
*I *233:A I *C 192.168 13.5 *L 0.000598 *D HB4xp67_ASAP7_75t_SRAM

*CAP
1 *221:Y 4.85778e-05
2 *233:A 7.48634e-05
3 *44:2 6.25849e-05
4 *44:3 8.88705e-05

*RES
1 *233:A *44:3 94.1991
2 *44:3 *44:2 35.0399
3 *44:2 *221:Y 69.1868
*END

*D_NET *45 3.45707e-05

*CONN
*I *193:A I *C 226.296 13.5 *L 0.000524 *D HB3xp67_ASAP7_75t_L
*I *222:Y O *C 226.152 12.996 *L 0 *D HB4xp67_ASAP7_75t_SRAM

*CAP
1 *222:Y 1.72853e-05
2 *193:A 1.72853e-05

*RES
1 *193:A *222:Y 60.1615
*END

*D_NET *46 0.00078094

*CONN
*I *223:Y O *C 265.896 10.836 *L 0 *D HB4xp67_ASAP7_75t_SRAM
*I *225:A I *C 229.752 11.34 *L 0.000598 *D HB4xp67_ASAP7_75t_SRAM

*CAP
1 *223:Y 1.29342e-05
2 *225:A 2.02656e-06
3 *46:2 3.09944e-05
4 *46:3 0.000293493
5 *46:4 8.40425e-05
6 *46:5 0.000357449

*RES
1 *46:5 *46:4 102.576
2 *46:3 *46:5 454.453
3 *225:A *46:3 11.2668
4 *46:2 *223:Y 25.4153
5 *46:4 *46:2 41.8614
*END

*D_NET *47 4.37498e-05

*CONN
*I *224:Y O *C 212.976 11.196 *L 0 *D HB4xp67_ASAP7_75t_SRAM
*I *346:D I *C 212.4 10.836 *L 0.000436 *D DFFHQx4_ASAP7_75t_SL

*CAP
1 *224:Y 4.88758e-06
2 *346:D 1.69873e-05
3 *47:2 2.18749e-05

*RES
1 *346:D *47:2 44.5383
2 *47:2 *224:Y 15.7514
*END

*D_NET *48 7.92742e-05

*CONN
*I *225:Y O *C 230.904 11.196 *L 0 *D HB4xp67_ASAP7_75t_SRAM
*I *348:D I *C 228.6 11.196 *L 0.000436 *D DFFHQx4_ASAP7_75t_SL

*CAP
1 *225:Y 2.14577e-06
2 *348:D 3.74913e-05
3 *48:2 3.96371e-05

*RES
1 *348:D *48:2 45.8798
2 *48:2 *225:Y 11.2668
*END

*D_NET *49 0.000116587

*CONN
*I *226:Y O *C 190.512 13.356 *L 0 *D HB4xp67_ASAP7_75t_SRAM
*I *349:D I *C 189.288 10.836 *L 0.000436 *D DFFHQx4_ASAP7_75t_SL

*CAP
1 *226:Y 3.80874e-05
2 *349:D 1.80602e-05
3 *49:2 4.02331e-05
4 *49:3 2.0206e-05

*RES
1 *349:D *49:3 29.9629
2 *49:3 *49:2 12.1511
3 *49:2 *226:Y 73.3795
*END

*D_NET *50 0.00059092

*CONN
*I *227:Y O *C 240.192 10.836 *L 0 *D HB4xp67_ASAP7_75t_SRAM
*I *347:D I *C 216.936 12.996 *L 0.000436 *D DFFHQx4_ASAP7_75t_SL

*CAP
1 *227:Y 3.3319e-05
2 *347:D 7.33137e-06
3 *50:2 0.000288129
4 *50:3 0.000262141

*RES
1 *347:D *50:3 36.5797
2 *50:3 *50:2 362.047
3 *50:2 *227:Y 76.4352
*END

*D_NET *51 5.75781e-05

*CONN
*I *228:Y O *C 192.456 19.476 *L 0 *D HB4xp67_ASAP7_75t_SRAM
*I *332:D I *C 191.232 19.836 *L 0.000414 *D DFFHQx4_ASAP7_75t_L

*CAP
1 *228:Y 1.34706e-05
2 *332:D 1.53184e-05
3 *51:2 2.8789e-05

*RES
1 *332:D *51:2 46.8121
2 *51:2 *228:Y 25.4153
*END

*D_NET *52 6.49691e-05

*CONN
*I *229:Y O *C 209.088 19.476 *L 0 *D HB4xp67_ASAP7_75t_SRAM
*I *330:D I *C 206.784 19.476 *L 0.000414 *D DFFHQx4_ASAP7_75t_L

*CAP
1 *229:Y 1.19209e-06
2 *330:D 3.12924e-05
3 *52:2 3.24845e-05

*RES
1 *330:D *52:2 48.1538
2 *52:2 *229:Y 11.2668
*END

*D_NET *53 5.10216e-05

*CONN
*I *230:Y O *C 186.84 17.316 *L 0 *D HB4xp67_ASAP7_75t_SRAM
*I *341:D I *C 185.688 17.676 *L 0.000436 *D DFFHQx4_ASAP7_75t_SL

*CAP
1 *230:Y 1.13249e-05
2 *341:D 1.41859e-05
3 *53:2 2.55108e-05

*RES
1 *341:D *53:2 46.8121
2 *53:2 *230:Y 25.4153
*END

*D_NET *54 6.49691e-05

*CONN
*I *231:Y O *C 190.944 19.476 *L 0 *D HB4xp67_ASAP7_75t_SRAM
*I *334:D I *C 188.64 19.476 *L 0.000436 *D DFFHQx4_ASAP7_75t_SL

*CAP
1 *231:Y 1.37091e-06
2 *334:D 3.11136e-05
3 *54:2 3.24845e-05

*RES
1 *334:D *54:2 48.1538
2 *54:2 *231:Y 11.2668
*END

*D_NET *55 7.25985e-05

*CONN
*I *232:Y O *C 204.12 17.316 *L 0 *D HB4xp67_ASAP7_75t_SRAM
*I *337:D I *C 202.464 17.676 *L 0.000436 *D DFFHQx4_ASAP7_75t_SL

*CAP
1 *232:Y 1.99676e-05
2 *337:D 1.63317e-05
3 *55:2 3.62992e-05

*RES
1 *337:D *55:2 45.1067
2 *55:2 *232:Y 34.5106
*END

*D_NET *56 4.35114e-05

*CONN
*I *233:Y O *C 193.32 13.356 *L 0 *D HB4xp67_ASAP7_75t_SRAM
*I *333:D I *C 192.96 15.156 *L 0.000436 *D DFFHQx4_ASAP7_75t_SL

*CAP
1 *233:Y 3.8147e-06
2 *333:D 1.7941e-05
3 *56:2 2.17557e-05

*RES
1 *333:D *56:2 51.3598
2 *56:2 *233:Y 14.0461
*END

*D_NET *57 8.22544e-05

*CONN
*I *234:Y O *C 185.328 15.156 *L 0 *D HB4xp67_ASAP7_75t_SRAM
*I *344:D I *C 183.024 15.156 *L 0.000436 *D DFFHQx4_ASAP7_75t_SL

*CAP
1 *234:Y 2.08616e-06
2 *344:D 3.9041e-05
3 *57:2 4.11272e-05

*RES
1 *344:D *57:2 48.1538
2 *57:2 *234:Y 11.2668
*END

*D_NET *58 7.33137e-05

*CONN
*I *235:Y O *C 213.624 17.676 *L 0 *D HB4xp67_ASAP7_75t_SRAM
*I *336:D I *C 211.32 17.676 *L 0.000436 *D DFFHQx4_ASAP7_75t_SL

*CAP
1 *235:Y 1.37091e-06
2 *336:D 3.52859e-05
3 *58:2 3.66569e-05

*RES
1 *336:D *58:2 45.8798
2 *58:2 *235:Y 11.2668
*END

*D_NET *59 9.48906e-05

*CONN
*I *236:Y O *C 199.584 15.156 *L 0 *D HB4xp67_ASAP7_75t_SRAM
*I *338:D I *C 198.432 17.316 *L 0.000436 *D DFFHQx4_ASAP7_75t_SL

*CAP
1 *236:Y 4.82798e-06
2 *338:D 1.38879e-05
3 *59:2 3.35574e-05
4 *59:3 4.26173e-05

*RES
1 *338:D *59:3 25.4153
2 *59:2 *236:Y 14.0461
3 *59:3 *59:2 56.6415
*END

*D_NET *60 6.65188e-05

*CONN
*I *237:Y O *C 199.8 19.476 *L 0 *D HB4xp67_ASAP7_75t_SRAM
*I *335:D I *C 197.496 19.476 *L 0.000436 *D DFFHQx4_ASAP7_75t_SL

*CAP
1 *237:Y 1.19209e-06
2 *335:D 3.20673e-05
3 *60:2 3.32594e-05

*RES
1 *335:D *60:2 45.8798
2 *60:2 *237:Y 11.2668
*END

*D_NET *61 7.05719e-05

*CONN
*I *238:Y O *C 185.328 17.316 *L 0 *D HB4xp67_ASAP7_75t_SRAM
*I *331:D I *C 183.024 17.316 *L 0.000436 *D DFFHQx4_ASAP7_75t_SL

*CAP
1 *238:Y 1.49012e-06
2 *331:D 3.37958e-05
3 *61:2 3.52859e-05

*RES
1 *331:D *61:2 48.1538
2 *61:2 *238:Y 11.2668
*END

*D_NET *62 0.000105023

*CONN
*I *239:Y O *C 194.4 19.836 *L 0 *D HB4xp67_ASAP7_75t_SRAM
*I *340:D I *C 193.248 17.676 *L 0.000436 *D DFFHQx4_ASAP7_75t_SL

*CAP
1 *239:Y 1.10269e-05
2 *340:D 1.33514e-05
3 *62:2 3.91603e-05
4 *62:3 4.14848e-05

*RES
1 *340:D *62:3 20.8676
2 *62:3 *62:2 56.6415
3 *62:2 *239:Y 19.4188
*END

*D_NET *63 9.20296e-05

*CONN
*I *240:Y O *C 209.304 17.316 *L 0 *D HB4xp67_ASAP7_75t_SRAM
*I *339:D I *C 208.152 15.156 *L 0.000436 *D DFFHQx4_ASAP7_75t_SL

*CAP
1 *240:Y 1.80602e-05
2 *339:D 2.79546e-05
3 *63:2 4.60148e-05

*RES
1 *339:D *63:2 63.8659
2 *63:2 *240:Y 25.4153
*END

*D_NET *64 6.59227e-05

*CONN
*I *241:Y O *C 214.056 13.356 *L 0 *D HB4xp67_ASAP7_75t_SRAM
*I *342:D I *C 211.752 13.356 *L 0.000436 *D DFFHQx4_ASAP7_75t_SL

*CAP
1 *241:Y 1.49012e-06
2 *342:D 3.14713e-05
3 *64:2 3.29614e-05

*RES
1 *342:D *64:2 45.8798
2 *64:2 *241:Y 11.2668
*END

*D_NET *65 0.000247717

*CONN
*I *242:Y O *C 210.6 12.996 *L 0 *D HB4xp67_ASAP7_75t_SRAM
*I *345:D I *C 202.464 10.836 *L 0.000436 *D DFFHQx4_ASAP7_75t_SL

*CAP
1 *242:Y 3.27826e-06
2 *345:D 0.00012058
3 *65:2 0.000123858

*RES
1 *345:D *65:2 225.375
2 *65:2 *242:Y 12.3407
*END

*D_NET *66 0.000546455

*CONN
*I *243:Y O *C 214.488 11.196 *L 0 *D HB4xp67_ASAP7_75t_SRAM
*I *343:D I *C 197.928 13.356 *L 0.000436 *D DFFHQx4_ASAP7_75t_SL

*CAP
1 *243:Y 2.23517e-05
2 *343:D 2.49147e-05
3 *66:2 2.62856e-05
4 *66:3 0.000217617
5 *66:4 0.000222027
6 *66:5 3.32594e-05

*RES
1 *343:D *66:5 34.5106
2 *66:4 *66:3 234.712
3 *66:5 *66:4 27.6499
4 *66:3 *66:2 12.1511
5 *66:2 *243:Y 44.3879
*END

*D_NET *67 0.00315356

*CONN
*I *244:A I *C 18.648 11.196 *L 0.00166 *D BUFx24_ASAP7_75t_SL
*I *309:Y O *C 179.568 11.196 *L 0 *D OA21x2_ASAP7_75t_SRAM

*CAP
1 *309:Y 1.37091e-06
2 *244:A 1.19209e-06
3 *67:2 0.000264823
4 *67:3 0.000536501
5 *67:4 0.000571609
6 *67:5 0.000575542
7 *67:6 0.000570953
8 *67:7 0.000169396
9 *67:8 0.000462174

*RES
1 *67:8 *67:7 265.724
2 *67:6 *67:8 455.906
3 *67:5 *67:6 457.043
4 *67:4 *67:5 455.906
5 *67:3 *67:4 457.043
6 *244:A *67:2 11.2668
7 *67:2 *67:3 454.453
8 *67:7 *309:Y 11.2668
*END

*D_NET *68 0.00267053

*CONN
*I *245:A I *C 55.584 10.836 *L 0.00166 *D BUFx24_ASAP7_75t_SL
*I *293:Y O *C 179.496 10.836 *L 0 *D XNOR2xp5_ASAP7_75t_SRAM

*CAP
1 *293:Y 1.54972e-06
2 *245:A 1.54972e-06
3 *68:2 0.000289202
4 *68:3 0.000102818
5 *68:4 0.000100195
6 *68:5 0.000580907
7 *68:6 0.000622511
8 *68:7 0.000323355
9 *68:8 0.000648439

*RES
1 *68:8 *68:7 449.906
2 *68:6 *68:8 457.043
3 *68:5 *68:6 455.906
4 *245:A *68:4 11.2668
5 *68:4 *68:3 139.21
6 *68:2 *68:5 455.59
7 *68:3 *68:2 24.8076
8 *68:7 *293:Y 11.2668
*END

*D_NET *69 0.0018189

*CONN
*I *246:A I *C 97.272 11.196 *L 0.00166 *D BUFx24_ASAP7_75t_SL
*I *271:Y O *C 180.144 12.996 *L 0 *D XNOR2xp5_ASAP7_75t_SRAM

*CAP
1 *271:Y 2.08616e-06
2 *246:A 1.18613e-05
3 *69:2 8.88109e-06
4 *69:3 0.000316203
5 *69:4 0.000616372
6 *69:5 0.000279129
7 *69:6 0.000584364

*RES
1 *69:6 *69:5 390.786
2 *69:4 *69:6 457.043
3 *246:A *69:3 43.9697
4 *69:3 *69:4 454.454
5 *69:5 *69:2 27.6499
6 *69:2 *271:Y 11.7722
*END

*D_NET *70 0.0014149

*CONN
*I *247:A I *C 127.728 10.836 *L 0.00166 *D BUFx24_ASAP7_75t_SL
*I *270:Y O *C 185.112 11.196 *L 0 *D XNOR2xp5_ASAP7_75t_SRAM

*CAP
1 *270:Y 1.18017e-05
2 *247:A 7.92742e-06
3 *70:2 3.06964e-05
4 *70:3 0.000346541
5 *70:4 0.000349104
6 *70:5 0.000668824

*RES
1 *70:5 *70:4 431.715
2 *247:A *70:3 38.8536
3 *70:3 *70:5 455.59
4 *70:4 *70:2 35.0399
5 *70:2 *270:Y 25.9837
*END

*D_NET *71 0.000710964

*CONN
*I *248:A I *C 158.616 11.196 *L 0.00166 *D BUFx24_ASAP7_75t_SL
*I *268:Y O *C 189.216 12.996 *L 0 *D XNOR2xp5_ASAP7_75t_SRAM

*CAP
1 *268:Y 1.2517e-06
2 *248:A 1.69277e-05
3 *71:2 0.000333309
4 *71:3 2.21729e-05
5 *71:4 0.000337303

*RES
1 *71:4 *71:3 22.4227
2 *248:A *71:2 53.6337
3 *71:2 *71:4 454.453
4 *71:3 *268:Y 11.2668
*END

*D_NET *72 9.44138e-05

*CONN
*I *249:A I *C 191.088 10.836 *L 0.00166 *D BUFx24_ASAP7_75t_SL
*I *266:Y O *C 193.752 11.196 *L 0 *D XNOR2xp5_ASAP7_75t_SRAM

*CAP
1 *266:Y 2.74181e-06
2 *249:A 2.93851e-05
3 *72:2 1.78218e-05
4 *72:3 4.44651e-05

*RES
1 *249:A *72:3 48.1538
2 *72:3 *72:2 39.5876
3 *72:2 *266:Y 11.7722
*END
